WAVEWATCH III TRACK LOCATIONS DATA
20191227 002000 76.3 -69.2 WB0173
20191227 003000 76.3 -69.1 WB0161
20191227 005000 76.3 -69.2 WB0173
20191227 010000 76.3 -69.1 WB0161
20191227 012000 76.3 -69.2 WB0173
20191227 013000 76.3 -69.1 WB0161
20191227 015000 76.3 -69.2 WB0173
20191227 020000 76.3 -69.1 WB0161
20191227 020000 76.3 -69.2 IB0820
20191227 022000 76.3 -69.2 WB0173
20191227 023000 76.3 -69.1 WB0161
20191227 023000 76.3 -69.2 IB1810
20191227 025000 76.3 -69.2 WB0173
20191227 030000 76.3 -69.1 WB0161
20191227 032000 76.3 -69.2 WB0173
20191227 033000 76.3 -69.1 WB0161
20191227 035000 76.3 -69.2 WB0173
20191227 040000 76.3 -69.1 WB0161
20191227 042000 76.3 -69.2 WB0173
20191227 043000 76.3 -69.1 WB0161
20191227 045000 76.3 -69.2 IB0820
20191227 045000 76.3 -69.2 WB0173
20191227 050000 76.3 -69.1 WB0161
20191227 052000 76.3 -69.2 WB0173
20191227 052000 76.3 -69.2 IB1810
20191227 053000 76.3 -69.1 WB0161
20191227 055000 76.3 -69.2 WB0173
20191227 060000 76.3 -69.1 WB0161
20191227 062000 76.3 -69.2 WB0173
20191227 063000 76.3 -69.1 WB0161
20191227 065000 76.3 -69.2 WB0173
20191227 070000 76.3 -69.1 WB0161
20191227 072000 76.3 -69.2 WB0173
20191227 073000 76.3 -69.1 WB0161
20191227 073000 76.3 -69.2 IB0820
20191227 075000 76.3 -69.2 WB0173
20191227 080000 76.3 -69.1 WB0161
20191227 081000 76.3 -69.2 IB1810
20191227 082000 76.3 -69.2 WB0173
20191227 083000 76.3 -69.1 WB0161
20191227 085000 76.3 -69.2 WB0173
20191227 090000 76.3 -69.1 WB0161
20191227 092000 76.3 -69.2 WB0173
20191227 093000 76.3 -69.1 WB0161
20191227 095000 76.3 -69.2 WB0173
20191227 100000 76.3 -69.1 WB0161
20191227 102000 76.3 -69.2 WB0173
20191227 102000 76.3 -69.2 IB0820
20191227 103000 76.3 -69.1 WB0161
20191227 105000 76.3 -69.2 WB0173
20191227 110000 76.3 -69.1 WB0161
20191227 110000 76.3 -69.2 IB1810
20191227 112000 76.3 -69.2 WB0173
20191227 113000 76.3 -69.1 WB0161
20191227 115000 76.3 -69.2 WB0173
20191227 120000 76.3 -69.1 WB0161
20191227 122000 76.3 -69.2 WB0173
20191227 123000 76.3 -69.1 WB0161
20191227 125000 76.3 -69.2 WB0173
20191227 130000 76.3 -69.1 WB0161
20191227 131000 76.3 -69.2 IB0820
20191227 132000 76.3 -69.2 WB0173
20191227 133000 76.3 -69.1 WB0161
20191227 135000 76.3 -69.2 IB1810
20191227 135000 76.3 -69.2 WB0173
20191227 140000 76.3 -69.1 WB0161
20191227 142000 76.3 -69.2 WB0173
20191227 143000 76.3 -69.1 WB0161
20191227 145000 76.3 -69.2 WB0173
20191227 150000 76.3 -69.1 WB0161
20191227 152000 76.3 -69.2 WB0173
20191227 153000 76.3 -69.1 WB0161
20191227 155000 76.3 -69.2 WB0173
20191227 160000 76.3 -69.1 WB0161
20191227 160000 76.3 -69.2 IB0820
20191227 162000 76.3 -69.2 WB0173
20191227 163000 76.3 -69.1 WB0161
20191227 163000 76.3 -69.2 IB1810
20191227 165000 76.3 -69.2 WB0173
20191227 170000 76.3 -69.1 WB0161
20191227 172000 76.3 -69.2 WB0173
20191227 173000 76.3 -69.1 WB0161
20191227 175000 76.3 -69.2 WB0173
20191227 180000 76.3 -69.1 WB0161
20191227 182000 76.3 -69.2 WB0173
20191227 183000 76.3 -69.1 WB0161
20191227 185000 76.3 -69.2 WB0173
20191227 185000 76.3 -69.2 IB0820
20191227 190000 76.3 -69.1 WB0161
20191227 192000 76.3 -69.2 WB0173
20191227 192000 76.3 -69.2 IB1810
20191227 193000 76.3 -69.1 WB0161
20191227 195000 76.3 -69.2 WB0173
20191227 200000 76.3 -69.1 WB0161
20191227 202000 76.3 -69.2 WB0173
20191227 203000 76.3 -69.1 WB0161
20191227 205000 76.3 -69.2 WB0173
20191227 210000 76.3 -69.1 WB0161
20191227 212000 76.3 -69.2 WB0173
20191227 213000 76.3 -69.1 WB0161
20191227 215000 76.3 -69.2 WB0173
20191227 220000 76.3 -69.1 WB0161
20191227 221000 76.3 -69.2 IB1810
20191227 222000 76.3 -69.2 WB0173
20191227 223000 76.3 -69.1 WB0161
20191227 225000 76.3 -69.2 WB0173
20191227 230000 76.3 -69.1 WB0161
20191227 232000 76.3 -69.2 WB0173
20191227 233000 76.3 -69.1 WB0161
20191227 235000 76.3 -69.2 WB0173
20191228 000000 76.3 -69.1 WB0161
20191228 002000 76.3 -69.2 WB0173
20191228 003000 76.3 -69.1 WB0161
20191228 005000 76.3 -69.2 WB0173
20191228 005000 76.3 -69.2 IB1810
20191228 010000 76.3 -69.1 WB0161
20191228 012000 76.3 -69.2 WB0173
20191228 013000 76.3 -69.1 WB0161
20191228 014000 76.3 -69.2 IB0820
20191228 015000 76.3 -69.2 WB0173
20191228 020000 76.3 -69.1 WB0161
20191228 022000 76.3 -69.2 WB0173
20191228 023000 76.3 -69.1 WB0161
20191228 025000 76.3 -69.2 WB0173
20191228 030000 76.3 -69.1 WB0161
20191228 032000 76.3 -69.2 WB0173
20191228 033000 76.3 -69.1 WB0161
20191228 034000 76.3 -69.2 IB1810
20191228 035000 76.3 -69.2 WB0173
20191228 040000 76.3 -69.1 WB0161
20191228 042000 76.3 -69.2 WB0173
20191228 043000 76.3 -69.1 WB0161
20191228 045000 76.3 -69.2 WB0173
20191228 050000 76.3 -69.1 WB0161
20191228 052000 76.3 -69.2 WB0173
20191228 053000 76.3 -69.1 WB0161
20191228 055000 76.3 -69.2 WB0173
20191228 060000 76.3 -69.1 WB0161
20191228 062000 76.3 -69.2 WB0173
20191228 062000 76.3 -69.2 IB0820
20191228 063000 76.3 -69.1 WB0161
20191228 065000 76.3 -69.2 WB0173
20191228 070000 76.3 -69.1 WB0161
20191228 072000 76.3 -69.2 WB0173
20191228 073000 76.3 -69.1 WB0161
20191228 075000 76.3 -69.2 WB0173
20191228 080000 76.3 -69.1 WB0161
20191228 082000 76.3 -69.2 WB0173
20191228 083000 76.3 -69.1 WB0161
20191228 085000 76.3 -69.2 WB0173
20191228 090000 76.3 -69.1 WB0161
20191228 091000 76.3 -69.2 IB0820
20191228 092000 76.3 -69.2 IB1810
20191228 092000 76.3 -69.2 WB0173
20191228 093000 76.3 -69.1 WB0161
20191228 095000 76.3 -69.2 WB0173
20191228 100000 76.3 -69.1 WB0161
20191228 102000 76.3 -69.2 WB0173
20191228 103000 76.3 -69.1 WB0161
20191228 105000 76.3 -69.2 WB0173
20191228 110000 76.3 -69.1 WB0161
20191228 112000 76.3 -69.2 WB0173
20191228 113000 76.3 -69.1 WB0161
20191228 115000 76.3 -69.2 WB0173
20191228 120000 76.3 -69.1 WB0161
20191228 120000 76.3 -69.2 IB1810
20191228 120000 76.3 -69.2 IB0820
20191228 122000 76.3 -69.2 WB0173
20191228 123000 76.3 -69.1 WB0161
20191228 125000 76.3 -69.2 WB0173
20191228 130000 76.3 -69.1 WB0161
20191228 132000 76.3 -69.2 WB0173
20191228 133000 76.3 -69.1 WB0161
20191228 135000 76.3 -69.2 WB0173
20191228 140000 76.3 -69.1 WB0161
20191228 142000 76.3 -69.2 WB0173
20191228 143000 76.3 -69.1 WB0161
20191228 145000 76.3 -69.2 WB0173
20191228 145000 76.3 -69.2 IB1810
20191228 145000 76.3 -69.2 IB0820
20191228 150000 76.3 -69.1 WB0161
20191228 152000 76.3 -69.2 WB0173
20191228 153000 76.3 -69.1 WB0161
20191228 155000 76.3 -69.2 WB0173
20191228 160000 76.3 -69.1 WB0161
20191228 162000 76.3 -69.2 WB0173
20191228 163000 76.3 -69.1 WB0161
20191228 165000 76.3 -69.2 WB0173
20191228 170000 76.3 -69.1 WB0161
20191228 172000 76.3 -69.2 WB0173
20191228 173000 76.3 -69.1 WB0161
20191228 174000 76.3 -69.2 IB1810
20191228 174000 76.3 -69.2 IB0820
20191228 175000 76.3 -69.2 WB0173
20191228 180000 76.3 -69.1 WB0161
20191228 182000 76.3 -69.2 WB0173
20191228 183000 76.3 -69.1 WB0161
20191228 185000 76.3 -69.2 WB0173
20191228 190000 76.3 -69.1 WB0161
20191228 192000 76.3 -69.2 WB0173
20191228 193000 76.3 -69.1 WB0161
20191228 195000 76.3 -69.2 WB0173
20191228 200000 76.3 -69.1 WB0161
20191228 202000 76.3 -69.2 WB0173
20191228 202000 76.3 -69.2 IB1810
20191228 203000 76.3 -69.1 WB0161
20191228 203000 76.3 -69.2 IB0820
20191228 205000 76.3 -69.2 WB0173
20191228 210000 76.3 -69.1 WB0161
20191228 212000 76.3 -69.2 WB0173
20191228 213000 76.3 -69.1 WB0161
20191228 215000 76.3 -69.2 WB0173
20191228 220000 76.3 -69.1 WB0161
20191228 222000 76.3 -69.2 WB0173
20191228 223000 76.3 -69.1 WB0161
20191228 225000 76.3 -69.2 WB0173
20191228 230000 76.3 -69.1 WB0161
20191228 231000 76.3 -69.2 IB1810
20191228 232000 76.3 -69.2 IB0820
20191228 232000 76.3 -69.2 WB0173
20191228 233000 76.3 -69.1 WB0161
20191228 235000 76.3 -69.2 WB0173
20191229 000000 76.3 -69.1 WB0161
20191229 002000 76.3 -69.2 WB0173
20191229 003000 76.3 -69.1 WB0161
20191229 005000 76.3 -69.2 WB0173
20191229 010000 76.3 -69.1 WB0161
20191229 012000 76.3 -69.2 WB0173
20191229 013000 76.3 -69.1 WB0161
20191229 015000 76.3 -69.2 WB0173
20191229 020000 76.3 -69.1 WB0161
20191229 020000 76.3 -69.2 IB1810
20191229 020000 76.3 -69.2 IB0820
20191229 022000 76.3 -69.2 WB0173
20191229 023000 76.3 -69.1 WB0161
20191229 025000 76.3 -69.2 WB0173
20191229 030000 76.3 -69.1 WB0161
20191229 032000 76.3 -69.2 WB0173
20191229 033000 76.3 -69.1 WB0161
20191229 035000 76.3 -69.2 WB0173
20191229 040000 76.3 -69.1 WB0161
20191229 042000 76.3 -69.2 WB0173
20191229 043000 76.3 -69.1 WB0161
20191229 044000 76.3 -69.2 IB1810
20191229 045000 76.3 -69.2 WB0173
20191229 045000 76.3 -69.2 IB0820
20191229 050000 76.3 -69.1 WB0161
20191229 052000 76.3 -69.2 WB0173
20191229 053000 76.3 -69.1 WB0161
20191229 055000 76.3 -69.2 WB0173
20191229 060000 76.3 -69.1 WB0161
20191229 062000 76.3 -69.2 WB0173
20191229 063000 76.3 -69.1 WB0161
20191229 065000 76.3 -69.2 WB0173
20191229 070000 76.3 -69.1 WB0161
20191229 072000 76.3 -69.2 WB0173
20191229 073000 76.3 -69.1 WB0161
20191229 073000 76.3 -69.2 IB1810
20191229 074000 76.3 -69.2 IB0820
20191229 075000 76.3 -69.2 WB0173
20191229 080000 76.3 -69.1 WB0161
20191229 082000 76.3 -69.2 WB0173
20191229 083000 76.3 -69.1 WB0161
20191229 085000 76.3 -69.2 WB0173
20191229 090000 76.3 -69.1 WB0161
20191229 092000 76.3 -69.2 WB0173
20191229 093000 76.3 -69.1 WB0161
20191229 095000 76.3 -69.2 WB0173
20191229 100000 76.3 -69.1 WB0161
20191229 102000 76.3 -69.2 WB0173
20191229 102000 76.3 -69.2 IB1810
20191229 103000 76.3 -69.1 WB0161
20191229 103000 76.3 -69.2 IB0820
20191229 105000 76.3 -69.2 WB0173
20191229 110000 76.3 -69.1 WB0161
20191229 112000 76.3 -69.2 WB0173
20191229 113000 76.3 -69.1 WB0161
20191229 115000 76.3 -69.2 WB0173
20191229 120000 76.3 -69.1 WB0161
20191229 122000 76.3 -69.2 WB0173
20191229 123000 76.3 -69.1 WB0161
20191229 125000 76.3 -69.2 WB0173
20191229 130000 76.3 -69.1 WB0161
20191229 131000 76.3 -69.2 IB1810
20191229 132000 76.3 -69.2 WB0173
20191229 133000 76.3 -69.2 IB0820
20191229 133000 76.3 -69.1 WB0161
20191229 135000 76.3 -69.2 WB0173
20191229 140000 76.3 -69.1 WB0161
20191229 142000 76.3 -69.2 WB0173
20191229 143000 76.3 -69.1 WB0161
20191229 145000 76.3 -69.2 WB0173
20191229 150000 76.3 -69.1 WB0161
20191229 152000 76.3 -69.2 WB0173
20191229 153000 76.3 -69.1 WB0161
20191229 155000 76.3 -69.2 WB0173
20191229 160000 76.3 -69.2 IB1810
20191229 160000 76.3 -69.1 WB0161
20191229 161000 76.3 -69.2 IB0820
20191229 162000 76.3 -69.2 WB0173
20191229 163000 76.3 -69.1 WB0161
20191229 165000 76.3 -69.2 WB0173
20191229 170000 76.3 -69.1 WB0161
20191229 172000 76.3 -69.2 WB0173
20191229 173000 76.3 -69.1 WB0161
20191229 175000 76.3 -69.2 WB0173
20191229 180000 76.3 -69.1 WB0161
20191229 182000 76.3 -69.2 WB0173
20191229 183000 76.3 -69.1 WB0161
20191229 185000 76.3 -69.2 WB0173
20191229 190000 76.3 -69.1 WB0161
20191229 190000 76.3 -69.2 IB0820
20191229 192000 76.3 -69.2 WB0173
20191229 193000 76.3 -69.1 WB0161
20191229 195000 76.3 -69.2 WB0173
20191229 200000 76.3 -69.1 WB0161
20191229 202000 76.3 -69.2 WB0173
20191229 203000 76.3 -69.1 WB0161
20191229 205000 76.3 -69.2 WB0173
20191229 210000 76.3 -69.1 WB0161
20191229 210000 76.3 -69.2 IB1810
20191229 212000 76.3 -69.2 WB0173
20191229 213000 76.3 -69.1 WB0161
20191229 215000 76.3 -69.2 WB0173
20191229 215000 76.3 -69.2 IB0820
20191229 220000 76.3 -69.1 WB0161
20191229 222000 76.3 -69.2 WB0173
20191229 223000 76.3 -69.1 WB0161
20191229 225000 76.3 -69.2 WB0173
20191229 230000 76.3 -69.1 WB0161
20191229 232000 76.3 -69.2 WB0173
20191229 233000 76.3 -69.1 WB0161
20191229 235000 76.3 -69.2 IB1810
20191229 235000 76.3 -69.2 WB0173
20191230 000000 76.3 -69.1 WB0161
20191230 002000 76.3 -69.2 WB0173
20191230 003000 76.3 -69.1 WB0161
20191230 004000 76.3 -69.2 IB0820
20191230 005000 76.3 -69.2 WB0173
20191230 010000 76.3 -69.1 WB0161
20191230 012000 76.3 -69.2 WB0173
20191230 013000 76.3 -69.1 WB0161
20191230 015000 76.3 -69.2 WB0173
20191230 020000 76.3 -69.1 WB0161
20191230 022000 76.3 -69.2 WB0173
20191230 023000 76.3 -69.1 WB0161
20191230 023000 76.3 -69.2 IB1810
20191230 025000 76.3 -69.2 WB0173
20191230 030000 76.3 -69.1 WB0161
20191230 032000 76.3 -69.2 WB0173
20191230 033000 76.3 -69.1 WB0161
20191230 033000 76.3 -69.2 IB0820
20191230 035000 76.3 -69.2 WB0173
20191230 040000 76.3 -69.1 WB0161
20191230 042000 76.3 -69.2 WB0173
20191230 043000 76.3 -69.1 WB0161
20191230 045000 76.3 -69.2 WB0173
20191230 050000 76.3 -69.1 WB0161
20191230 052000 76.3 -69.2 WB0173
20191230 052000 76.3 -69.2 IB1810
20191230 053000 76.3 -69.1 WB0161
20191230 055000 76.3 -69.2 WB0173
20191230 060000 76.3 -69.1 WB0161
20191230 062000 76.3 -69.2 WB0173
20191230 062000 76.3 -69.2 IB0820
20191230 063000 76.3 -69.1 WB0161
20191230 065000 76.3 -69.2 WB0173
20191230 070000 76.3 -69.1 WB0161
20191230 072000 76.3 -69.2 WB0173
20191230 073000 76.3 -69.1 WB0161
20191230 075000 76.3 -69.2 WB0173
20191230 080000 76.3 -69.1 WB0161
20191230 081000 76.3 -69.2 IB1810
20191230 082000 76.3 -69.2 WB0173
20191230 083000 76.3 -69.1 WB0161
20191230 085000 76.3 -69.2 WB0173
20191230 090000 76.3 -69.1 WB0161
20191230 091000 76.3 -69.2 IB0820
20191230 092000 76.3 -69.2 WB0173
20191230 093000 76.3 -69.1 WB0161
20191230 095000 76.3 -69.2 WB0173
20191230 100000 76.3 -69.1 WB0161
20191230 102000 76.3 -69.2 WB0173
20191230 103000 76.3 -69.1 WB0161
20191230 105000 76.3 -69.2 WB0173
20191230 105000 76.3 -69.2 IB1810
20191230 110000 76.3 -69.1 WB0161
20191230 112000 76.3 -69.2 WB0173
20191230 113000 76.3 -69.1 WB0161
20191230 115000 76.3 -69.2 WB0173
20191230 120000 76.3 -69.1 WB0161
20191230 120000 76.3 -69.2 IB0820
20191230 122000 76.3 -69.2 WB0173
20191230 123000 76.3 -69.1 WB0161
20191230 125000 76.3 -69.2 WB0173
20191230 130000 76.3 -69.1 WB0161
20191230 132000 76.3 -69.2 WB0173
20191230 133000 76.3 -69.1 WB0161
20191230 134000 76.3 -69.2 IB1810
20191230 135000 76.3 -69.2 WB0173
20191230 140000 76.3 -69.1 WB0161
20191230 142000 76.3 -69.2 WB0173
20191230 143000 76.3 -69.1 WB0161
20191230 145000 76.3 -69.2 WB0173
20191230 145000 76.3 -69.2 IB0820
20191230 150000 76.3 -69.1 WB0161
20191230 152000 76.3 -69.2 WB0173
20191230 153000 76.3 -69.1 WB0161
20191230 155000 76.3 -69.2 WB0173
20191230 160000 76.3 -69.1 WB0161
20191230 162000 76.3 -69.2 WB0173
20191230 163000 76.3 -69.1 WB0161
20191230 163000 76.3 -69.2 IB1810
20191230 165000 76.3 -69.2 WB0173
20191230 170000 76.3 -69.1 WB0161
20191230 172000 76.3 -69.2 WB0173
20191230 173000 76.3 -69.1 WB0161
20191230 174000 76.3 -69.2 IB0820
20191230 175000 76.3 -69.2 WB0173
20191230 180000 76.3 -69.1 WB0161
20191230 182000 76.3 -69.2 WB0173
20191230 183000 76.3 -69.1 WB0161
20191230 185000 76.3 -69.2 WB0173
20191230 190000 76.3 -69.1 WB0161
20191230 192000 76.3 -69.2 WB0173
20191230 192000 76.3 -69.2 IB1810
20191230 193000 76.3 -69.1 WB0161
20191230 195000 76.3 -69.2 WB0173
20191230 200000 76.3 -69.1 WB0161
20191230 202000 76.3 -69.2 WB0173
20191230 203000 76.3 -69.2 IB0820
20191230 203000 76.3 -69.1 WB0161
20191230 205000 76.3 -69.2 WB0173
20191230 210000 76.3 -69.1 WB0161
20191230 212000 76.3 -69.2 WB0173
20191230 213000 76.3 -69.1 WB0161
20191230 215000 76.3 -69.2 WB0173
20191230 220000 76.3 -69.1 WB0161
20191230 221000 76.3 -69.2 IB1810
20191230 222000 76.3 -69.2 WB0173
20191230 223000 76.3 -69.1 WB0161
20191230 225000 76.3 -69.2 WB0173
20191230 230000 76.3 -69.1 WB0161
20191230 231000 76.3 -69.2 IB0820
20191230 232000 76.3 -69.2 WB0173
20191230 233000 76.3 -69.1 WB0161
20191230 235000 76.3 -69.2 WB0173
20191231 000000 76.3 -69.1 WB0161
20191231 002000 76.3 -69.2 WB0173
20191231 003000 76.3 -69.1 WB0161
20191231 005000 76.3 -69.2 WB0173
20191231 005000 76.3 -69.2 IB1810
20191231 010000 76.3 -69.1 WB0161
20191231 012000 76.3 -69.2 WB0173
20191231 013000 76.3 -69.1 WB0161
20191231 015000 76.3 -69.2 WB0173
20191231 020000 76.3 -69.1 WB0161
20191231 020000 76.3 -69.2 IB0820
20191231 022000 76.3 -69.2 WB0173
20191231 023000 76.3 -69.1 WB0161
20191231 025000 76.3 -69.2 WB0173
20191231 030000 76.3 -69.1 WB0161
20191231 032000 76.3 -69.2 WB0173
20191231 033000 76.3 -69.1 WB0161
20191231 034000 76.3 -69.2 IB1810
20191231 035000 76.3 -69.2 WB0173
20191231 040000 76.3 -69.1 WB0161
20191231 042000 76.3 -69.2 WB0173
20191231 043000 76.3 -69.1 WB0161
20191231 045000 76.3 -69.2 WB0173
20191231 045000 76.3 -69.2 IB0820
20191231 050000 76.3 -69.1 WB0161
20191231 052000 76.3 -69.2 WB0173
20191231 053000 76.3 -69.1 WB0161
20191231 055000 76.3 -69.2 WB0173
20191231 060000 76.3 -69.1 WB0161
20191231 062000 76.3 -69.2 WB0173
20191231 063000 76.3 -69.1 WB0161
20191231 063000 76.3 -69.2 IB1810
20191231 065000 76.3 -69.2 WB0173
20191231 070000 76.3 -69.1 WB0161
20191231 072000 76.3 -69.2 WB0173
20191231 073000 76.3 -69.1 WB0161
20191231 074000 76.3 -69.2 IB0820
20191231 075000 76.3 -69.2 WB0173
20191231 080000 76.3 -69.1 WB0161
20191231 082000 76.3 -69.2 WB0173
20191231 083000 76.3 -69.1 WB0161
20191231 085000 76.3 -69.2 WB0173
20191231 090000 76.3 -69.1 WB0161
20191231 092000 76.3 -69.2 IB1810
20191231 092000 76.3 -69.2 WB0173
20191231 093000 76.3 -69.1 WB0161
20191231 095000 76.3 -69.2 WB0173
20191231 100000 76.3 -69.1 WB0161
20191231 102000 76.3 -69.2 WB0173
20191231 102000 76.3 -69.2 IB0820
20191231 103000 76.3 -69.1 WB0161
20191231 105000 76.3 -69.2 WB0173
20191231 110000 76.3 -69.1 WB0161
20191231 112000 76.3 -69.2 WB0173
20191231 113000 76.3 -69.1 WB0161
20191231 115000 76.3 -69.2 WB0173
20191231 120000 76.3 -69.1 WB0161
20191231 120000 76.3 -69.2 IB1810
20191231 122000 76.3 -69.2 WB0173
20191231 123000 76.3 -69.1 WB0161
20191231 125000 76.3 -69.2 WB0173
20191231 130000 76.3 -69.1 WB0161
20191231 131000 76.3 -69.2 IB0820
20191231 132000 76.3 -69.2 WB0173
20191231 133000 76.3 -69.1 WB0161
20191231 135000 76.3 -69.2 WB0173
20191231 140000 76.3 -69.1 WB0161
20191231 142000 76.3 -69.2 WB0173
20191231 143000 76.3 -69.1 WB0161
20191231 145000 76.3 -69.2 WB0173
20191231 145000 76.3 -69.2 IB1810
20191231 150000 76.3 -69.1 WB0161
20191231 152000 76.3 -69.2 WB0173
20191231 153000 76.3 -69.1 WB0161
20191231 155000 76.3 -69.2 WB0173
20191231 160000 76.3 -69.1 WB0161
20191231 160000 76.3 -69.2 IB0820
20191231 162000 76.3 -69.2 WB0173
20191231 163000 76.3 -69.1 WB0161
20191231 165000 76.3 -69.2 WB0173
20191231 170000 76.3 -69.1 WB0161
20191231 172000 76.3 -69.2 WB0173
20191231 173000 76.3 -69.1 WB0161
20191231 174000 76.3 -69.2 IB1810
20191231 175000 76.3 -69.2 WB0173
20191231 180000 76.3 -69.1 WB0161
20191231 182000 76.3 -69.2 WB0173
20191231 183000 76.3 -69.1 WB0161
20191231 185000 76.3 -69.2 WB0173
20191231 185000 76.3 -69.2 IB0820
20191231 190000 76.3 -69.1 WB0161
20191231 192000 76.3 -69.2 WB0173
20191231 193000 76.3 -69.1 WB0161
20191231 195000 76.3 -69.2 WB0173
20191231 200000 76.3 -69.1 WB0161
20191231 202000 76.3 -69.2 WB0173
20191231 202000 76.3 -69.2 IB1810
20191231 203000 76.3 -69.1 WB0161
20191231 205000 76.3 -69.2 WB0173
20191231 210000 76.3 -69.1 WB0161
20191231 212000 76.3 -69.2 WB0173
20191231 213000 76.3 -69.1 WB0161
20191231 214000 76.3 -69.2 IB0820
20191231 215000 76.3 -69.2 WB0173
20191231 220000 76.3 -69.1 WB0161
20191231 222000 76.3 -69.2 WB0173
20191231 223000 76.3 -69.1 WB0161
20191231 225000 76.3 -69.2 WB0173
20191231 230000 76.3 -69.1 WB0161
20191231 231000 76.3 -69.2 IB1810
20191231 232000 76.3 -69.2 WB0173
20191231 233000 76.3 -69.1 WB0161
20191231 235000 76.3 -69.2 WB0173
20200101 000000 76.3 -69.1 WB0161
20200101 002000 76.3 -69.2 WB0173
20200101 003000 76.3 -69.1 WB0161
20200101 003000 76.3 -69.2 IB0820
20200101 005000 76.3 -69.2 WB0173
20200101 010000 76.3 -69.1 WB0161
20200101 012000 76.3 -69.2 WB0173
20200101 013000 76.3 -69.1 WB0161
20200101 015000 76.3 -69.2 WB0173
20200101 020000 76.3 -69.1 WB0161
20200101 020000 76.3 -69.2 IB1810
20200101 022000 76.3 -69.2 WB0173
20200101 023000 76.3 -69.1 WB0161
20200101 025000 76.3 -69.2 WB0173
20200101 030000 76.3 -69.1 WB0161
20200101 032000 76.3 -69.2 WB0173
20200101 032000 76.3 -69.2 IB0820
20200101 033000 76.3 -69.1 WB0161
20200101 035000 76.3 -69.2 WB0173
20200101 040000 76.3 -69.1 WB0161
20200101 042000 76.3 -69.2 WB0173
20200101 043000 76.3 -69.1 WB0161
20200101 045000 76.3 -69.2 IB1810
20200101 045000 76.3 -69.2 WB0173
20200101 050000 76.3 -69.1 WB0161
20200101 052000 76.3 -69.2 WB0173
20200101 053000 76.3 -69.1 WB0161
20200101 055000 76.3 -69.2 WB0173
20200101 060000 76.3 -69.1 WB0161
20200101 061000 76.3 -69.2 IB0820
20200101 062000 76.3 -69.2 WB0173
20200101 063000 76.3 -69.1 WB0161
20200101 065000 76.3 -69.2 WB0173
20200101 070000 76.3 -69.1 WB0161
20200101 072000 76.3 -69.2 WB0173
20200101 073000 76.3 -69.1 WB0161
20200101 073000 76.3 -69.2 IB1810
20200101 075000 76.3 -69.2 WB0173
20200101 080000 76.3 -69.1 WB0161
20200101 082000 76.3 -69.2 WB0173
20200101 083000 76.3 -69.1 WB0161
20200101 085000 76.3 -69.2 WB0173
20200101 090000 76.3 -69.1 WB0161
20200101 090000 76.3 -69.2 IB0820
20200101 092000 76.3 -69.2 WB0173
20200101 093000 76.3 -69.1 WB0161
20200101 095000 76.3 -69.2 WB0173
20200101 100000 76.3 -69.1 WB0161
20200101 102000 76.3 -69.2 WB0173
20200101 102000 76.3 -69.2 IB1810
20200101 103000 76.3 -69.1 WB0161
20200101 105000 76.3 -69.2 WB0173
20200101 110000 76.3 -69.1 WB0161
20200101 112000 76.3 -69.2 WB0173
20200101 113000 76.3 -69.1 WB0161
20200101 115000 76.3 -69.2 WB0173
20200101 115000 76.3 -69.2 IB0820
20200101 120000 76.3 -69.1 WB0161
20200101 122000 76.3 -69.2 WB0173
20200101 123000 76.3 -69.1 WB0161
20200101 125000 76.3 -69.2 WB0173
20200101 130000 76.3 -69.1 WB0161
20200101 131000 76.3 -69.2 IB1810
20200101 132000 76.3 -69.2 WB0173
20200101 133000 76.3 -69.1 WB0161
20200101 135000 76.3 -69.2 WB0173
20200101 140000 76.3 -69.1 WB0161
20200101 142000 76.3 -69.2 WB0173
20200101 143000 76.3 -69.1 WB0161
20200101 144000 76.3 -69.2 IB0820
20200101 145000 76.3 -69.2 WB0173
20200101 150000 76.3 -69.1 WB0161
20200101 152000 76.3 -69.2 WB0173
20200101 153000 76.3 -69.1 WB0161
20200101 155000 76.3 -69.2 WB0173
20200101 160000 76.3 -69.1 WB0161
20200101 160000 76.3 -69.2 IB1810
20200101 162000 76.3 -69.2 WB0173
20200101 163000 76.3 -69.1 WB0161
20200101 165000 76.3 -69.2 WB0173
20200101 170000 76.3 -69.1 WB0161
20200101 172000 76.3 -69.2 WB0173
20200101 172000 76.3 -69.2 IB0820
20200101 173000 76.3 -69.1 WB0161
20200101 175000 76.3 -69.2 WB0173
20200101 180000 76.3 -69.1 WB0161
20200101 182000 76.3 -69.2 WB0173
20200101 183000 76.3 -69.1 WB0161
20200101 185000 76.3 -69.2 WB0173
20200101 185000 76.3 -69.2 IB1810
20200101 190000 76.3 -69.1 WB0161
20200101 192000 76.3 -69.2 WB0173
20200101 193000 76.3 -69.1 WB0161
20200101 195000 76.3 -69.2 WB0173
20200101 200000 76.3 -69.1 WB0161
20200101 201000 76.3 -69.2 IB0820
20200101 202000 76.3 -69.2 WB0173
20200101 203000 76.3 -69.1 WB0161
20200101 205000 76.3 -69.2 WB0173
20200101 210000 76.3 -69.1 WB0161
20200101 212000 76.3 -69.2 WB0173
20200101 213000 76.3 -69.1 WB0161
20200101 214000 76.3 -69.2 IB1810
20200101 215000 76.3 -69.2 WB0173
20200101 220000 76.3 -69.1 WB0161
20200101 222000 76.3 -69.2 WB0173
20200101 223000 76.3 -69.1 WB0161
20200101 225000 76.3 -69.2 WB0173
20200101 230000 76.3 -69.1 WB0161
20200101 230000 76.3 -69.2 IB0820
20200101 232000 76.3 -69.2 WB0173
20200101 233000 76.3 -69.1 WB0161
20200101 235000 76.3 -69.2 WB0173
20200102 000000 76.3 -69.1 WB0161
20200102 002000 76.3 -69.2 WB0173
20200102 002000 76.3 -69.2 IB1810
20200102 003000 76.3 -69.1 WB0161
20200102 005000 76.3 -69.2 WB0173
20200102 010000 76.3 -69.1 WB0161
20200102 012000 76.3 -69.2 WB0173
20200102 013000 76.3 -69.1 WB0161
20200102 015000 76.3 -69.2 WB0173
20200102 015000 76.3 -69.2 IB0820
20200102 020000 76.3 -69.1 WB0161
20200102 022000 76.3 -69.2 WB0173
20200102 023000 76.3 -69.1 WB0161
20200102 025000 76.3 -69.2 WB0173
20200102 030000 76.3 -69.1 WB0161
20200102 031000 76.3 -69.2 IB1810
20200102 032000 76.3 -69.2 WB0173
20200102 033000 76.3 -69.1 WB0161
20200102 035000 76.3 -69.2 WB0173
20200102 040000 76.3 -69.1 WB0161
20200102 042000 76.3 -69.2 WB0173
20200102 043000 76.3 -69.1 WB0161
20200102 044000 76.3 -69.2 IB0820
20200102 045000 76.3 -69.2 WB0173
20200102 050000 76.3 -69.1 WB0161
20200102 052000 76.3 -69.2 WB0173
20200102 053000 76.3 -69.1 WB0161
20200102 055000 76.3 -69.2 WB0173
20200102 060000 76.3 -69.1 WB0161
20200102 060000 76.3 -69.2 IB1810
20200102 062000 76.3 -69.2 WB0173
20200102 063000 76.3 -69.1 WB0161
20200102 065000 76.3 -69.2 WB0173
20200102 070000 76.3 -69.1 WB0161
20200102 072000 76.3 -69.2 WB0173
20200102 073000 76.3 -69.1 WB0161
20200102 073000 76.3 -69.2 IB0820
20200102 075000 76.3 -69.2 WB0173
20200102 080000 76.3 -69.1 WB0161
20200102 082000 76.3 -69.2 WB0173
20200102 083000 76.3 -69.1 WB0161
20200102 085000 76.3 -69.2 IB1810
20200102 085000 76.3 -69.2 WB0173
20200102 090000 76.3 -69.1 WB0161
20200102 092000 76.3 -69.2 WB0173
20200102 093000 76.3 -69.1 WB0161
20200102 095000 76.3 -69.2 WB0173
20200102 100000 76.3 -69.1 WB0161
20200102 102000 76.3 -69.2 WB0173
20200102 102000 76.3 -69.2 IB0820
20200102 103000 76.3 -69.1 WB0161
20200102 105000 76.3 -69.2 WB0173
20200102 110000 76.3 -69.1 WB0161
20200102 112000 76.3 -69.2 WB0173
20200102 113000 76.3 -69.1 WB0161
20200102 113000 76.3 -69.2 IB1810
20200102 115000 76.3 -69.2 WB0173
20200102 120000 76.3 -69.1 WB0161
20200102 122000 76.3 -69.2 WB0173
20200102 123000 76.3 -69.1 WB0161
20200102 125000 76.3 -69.2 WB0173
20200102 130000 76.3 -69.1 WB0161
20200102 132000 76.3 -69.2 WB0173
20200102 133000 76.3 -69.1 WB0161
20200102 135000 76.3 -69.2 WB0173
20200102 140000 76.3 -69.1 WB0161
20200102 142000 76.3 -69.2 WB0173
20200102 142000 76.3 -69.2 IB1810
20200102 143000 76.3 -69.1 WB0161
20200102 145000 76.3 -69.2 WB0173
20200102 150000 76.3 -69.1 WB0161
20200102 152000 76.3 -69.2 WB0173
20200102 153000 76.3 -69.1 WB0161
20200102 155000 76.3 -69.2 WB0173
20200102 160000 76.3 -69.2 IB0820
20200102 160000 76.3 -69.1 WB0161
20200102 162000 76.3 -69.2 WB0173
20200102 163000 76.3 -69.1 WB0161
20200102 165000 76.3 -69.2 WB0173
20200102 170000 76.3 -69.1 WB0161
20200102 171000 76.3 -69.2 IB1810
20200102 172000 76.3 -69.2 WB0173
20200102 173000 76.3 -69.1 WB0161
20200102 175000 76.3 -69.2 WB0173
20200102 180000 76.3 -69.1 WB0161
20200102 182000 76.3 -69.2 WB0173
20200102 183000 76.3 -69.1 WB0161
20200102 184000 76.3 -69.2 IB0820
20200102 185000 76.3 -69.2 WB0173
20200102 190000 76.3 -69.1 WB0161
20200102 192000 76.3 -69.2 WB0173
20200102 193000 76.3 -69.1 WB0161
20200102 195000 76.3 -69.2 WB0173
20200102 195000 76.3 -69.2 IB1810
20200102 200000 76.3 -69.1 WB0161
20200102 202000 76.3 -69.2 WB0173
20200102 203000 76.3 -69.1 WB0161
20200102 205000 76.3 -69.2 WB0173
20200102 210000 76.3 -69.1 WB0161
20200102 212000 76.3 -69.2 WB0173
20200102 213000 76.3 -69.1 WB0161
20200102 214000 76.3 -69.2 IB0820
20200102 215000 76.3 -69.2 WB0173
20200102 220000 76.3 -69.1 WB0161
20200102 222000 76.3 -69.2 WB0173
20200102 223000 76.3 -69.1 WB0161
20200102 224000 76.3 -69.2 IB1810
20200102 225000 76.3 -69.2 WB0173
20200102 230000 76.3 -69.1 WB0161
20200102 232000 76.3 -69.2 WB0173
20200102 233000 76.3 -69.1 WB0161
20200102 235000 76.3 -69.2 WB0173
20200103 000000 76.3 -69.1 WB0161
20200103 002000 76.3 -69.2 WB0173
20200103 002000 76.3 -69.2 IB0820
20200103 003000 76.3 -69.1 WB0161
20200103 005000 76.3 -69.2 WB0173
20200103 010000 76.3 -69.1 WB0161
20200103 012000 76.3 -69.2 WB0173
20200103 013000 76.3 -69.1 WB0161
20200103 013000 76.3 -69.2 IB1810
20200103 015000 76.3 -69.2 WB0173
20200103 020000 76.3 -69.1 WB0161
20200103 022000 76.3 -69.2 WB0173
20200103 023000 76.3 -69.1 WB0161
20200103 025000 76.3 -69.2 WB0173
20200103 030000 76.3 -69.1 WB0161
20200103 032000 76.3 -69.2 WB0173
20200103 033000 76.3 -69.1 WB0161
20200103 035000 76.3 -69.2 WB0173
20200103 040000 76.3 -69.1 WB0161
20200103 042000 76.3 -69.2 IB1810
20200103 042000 76.3 -69.2 WB0173
20200103 043000 76.3 -69.1 WB0161
20200103 045000 76.3 -69.2 WB0173
20200103 050000 76.3 -69.1 WB0161
20200103 052000 76.3 -69.2 WB0173
20200103 053000 76.3 -69.1 WB0161
20200103 054000 76.3 -69.2 IB0820
20200103 055000 76.3 -69.2 WB0173
20200103 060000 76.3 -69.1 WB0161
20200103 062000 76.3 -69.2 WB0173
20200103 063000 76.3 -69.1 WB0161
20200103 065000 76.3 -69.2 WB0173
20200103 070000 76.3 -69.1 WB0161
20200103 071000 76.3 -69.2 IB1810
20200103 072000 76.3 -69.2 WB0173
20200103 073000 76.3 -69.1 WB0161
20200103 075000 76.3 -69.2 WB0173
20200103 080000 76.3 -69.1 WB0161
20200103 082000 76.3 -69.2 WB0173
20200103 083000 76.3 -69.1 WB0161
20200103 083000 76.3 -69.2 IB0820
20200103 085000 76.3 -69.2 WB0173
20200103 090000 76.3 -69.1 WB0161
20200103 092000 76.3 -69.2 WB0173
20200103 093000 76.3 -69.1 WB0161
20200103 095000 76.3 -69.2 WB0173
20200103 095000 76.3 -69.2 IB1810
20200103 100000 76.3 -69.1 WB0161
20200103 102000 76.3 -69.2 WB0173
20200103 103000 76.3 -69.1 WB0161
20200103 105000 76.3 -69.2 WB0173
20200103 110000 76.3 -69.1 WB0161
20200103 112000 76.3 -69.2 IB0820
20200103 112000 76.3 -69.2 WB0173
20200103 113000 76.3 -69.1 WB0161
20200103 115000 76.3 -69.2 WB0173
20200103 120000 76.3 -69.1 WB0161
20200103 122000 76.3 -69.2 WB0173
20200103 123000 76.3 -69.1 WB0161
20200103 124000 76.3 -69.2 IB1810
20200103 125000 76.3 -69.2 WB0173
20200103 130000 76.3 -69.1 WB0161
20200103 132000 76.3 -69.2 WB0173
20200103 133000 76.3 -69.1 WB0161
20200103 135000 76.3 -69.2 WB0173
20200103 140000 76.3 -69.1 WB0161
20200103 141000 76.3 -69.2 IB0820
20200103 142000 76.3 -69.2 WB0173
20200103 143000 76.3 -69.1 WB0161
20200103 145000 76.3 -69.2 WB0173
20200103 150000 76.3 -69.1 WB0161
20200103 152000 76.3 -69.2 WB0173
20200103 153000 76.3 -69.1 WB0161
20200103 155000 76.3 -69.2 WB0173
20200103 160000 76.3 -69.1 WB0161
20200103 162000 76.3 -69.2 WB0173
20200103 163000 76.3 -69.1 WB0161
20200103 165000 76.3 -69.2 WB0173
20200103 170000 76.3 -69.1 WB0161
20200103 170000 76.3 -69.2 IB0820
20200103 172000 76.3 -69.2 WB0173
20200103 172000 76.3 -69.2 IB1810
20200103 173000 76.3 -69.1 WB0161
20200103 175000 76.3 -69.2 WB0173
20200103 180000 76.3 -69.1 WB0161
20200103 182000 76.3 -69.2 WB0173
20200103 183000 76.3 -69.1 WB0161
20200103 185000 76.3 -69.2 WB0173
20200103 190000 76.3 -69.1 WB0161
20200103 192000 76.3 -69.2 WB0173
20200103 193000 76.3 -69.1 WB0161
20200103 194000 76.3 -69.2 IB0820
20200103 195000 76.3 -69.2 WB0173
20200103 200000 76.3 -69.1 WB0161
20200103 202000 76.3 -69.2 WB0173
20200103 203000 76.3 -69.1 WB0161
20200103 205000 76.3 -69.2 WB0173
20200103 210000 76.3 -69.1 WB0161
20200103 212000 76.3 -69.2 WB0173
20200103 213000 76.3 -69.1 WB0161
20200103 215000 76.3 -69.2 WB0173
20200103 220000 76.3 -69.1 WB0161
20200103 222000 76.3 -69.2 IB1810
20200103 222000 76.3 -69.2 WB0173
20200103 223000 76.3 -69.1 WB0161
20200103 223000 76.3 -69.2 IB0820
20200103 225000 76.3 -69.2 WB0173
20200103 230000 76.3 -69.1 WB0161
20200103 232000 76.3 -69.2 WB0173
20200103 233000 76.3 -69.1 WB0161
20200103 235000 76.3 -69.2 WB0173
20200104 000000 76.3 -69.1 WB0161
20200104 002000 76.3 -69.2 WB0173
20200104 003000 76.3 -69.1 WB0161
20200104 005000 76.3 -69.2 WB0173
20200104 010000 76.3 -69.1 WB0161
20200104 010000 76.3 -69.2 IB1810
20200104 012000 76.3 -69.2 WB0173
20200104 012000 76.3 -69.2 IB0820
20200104 013000 76.3 -69.1 WB0161
20200104 015000 76.3 -69.2 WB0173
20200104 020000 76.3 -69.1 WB0161
20200104 022000 76.3 -69.2 WB0173
20200104 023000 76.3 -69.1 WB0161
20200104 025000 76.3 -69.2 WB0173
20200104 030000 76.3 -69.1 WB0161
20200104 032000 76.3 -69.2 WB0173
20200104 033000 76.3 -69.1 WB0161
20200104 035000 76.3 -69.2 WB0173
20200104 035000 76.3 -69.2 IB1810
20200104 040000 76.3 -69.1 WB0161
20200104 041000 76.3 -69.2 IB0820
20200104 042000 76.3 -69.2 WB0173
20200104 043000 76.3 -69.1 WB0161
20200104 045000 76.3 -69.2 WB0173
20200104 050000 76.3 -69.1 WB0161
20200104 052000 76.3 -69.2 WB0173
20200104 053000 76.3 -69.1 WB0161
20200104 055000 76.3 -69.2 WB0173
20200104 060000 76.3 -69.1 WB0161
20200104 062000 76.3 -69.2 WB0173
20200104 063000 76.3 -69.1 WB0161
20200104 065000 76.3 -69.2 WB0173
20200104 070000 76.3 -69.1 WB0161
20200104 070000 76.3 -69.2 IB0820
20200104 072000 76.3 -69.2 WB0173
20200104 073000 76.3 -69.1 WB0161
20200104 075000 76.3 -69.2 WB0173
20200104 080000 76.3 -69.1 WB0161
20200104 082000 76.3 -69.2 WB0173
20200104 083000 76.3 -69.1 WB0161
20200104 085000 76.3 -69.2 WB0173
20200104 085000 76.3 -69.2 IB1810
20200104 090000 76.3 -69.1 WB0161
20200104 092000 76.3 -69.2 WB0173
20200104 093000 76.3 -69.1 WB0161
20200104 095000 76.3 -69.2 IB0820
20200104 095000 76.3 -69.2 WB0173
20200104 100000 76.3 -69.1 WB0161
20200104 102000 76.3 -69.2 WB0173
20200104 103000 76.3 -69.1 WB0161
20200104 105000 76.3 -69.2 WB0173
20200104 110000 76.3 -69.1 WB0161
20200104 112000 76.3 -69.2 WB0173
20200104 113000 76.3 -69.1 WB0161
20200104 114000 76.3 -69.2 IB1810
20200104 115000 76.3 -69.2 WB0173
20200104 120000 76.3 -69.1 WB0161
20200104 122000 76.3 -69.2 WB0173
20200104 123000 76.3 -69.1 WB0161
20200104 125000 76.3 -69.2 WB0173
20200104 130000 76.3 -69.1 WB0161
20200104 132000 76.3 -69.2 WB0173
20200104 133000 76.3 -69.1 WB0161
20200104 135000 76.3 -69.2 WB0173
20200104 140000 76.3 -69.1 WB0161
20200104 142000 76.3 -69.2 WB0173
20200104 142000 76.3 -69.2 IB1810
20200104 143000 76.3 -69.1 WB0161
20200104 145000 76.3 -69.2 WB0173
20200104 150000 76.3 -69.1 WB0161
20200104 152000 76.3 -69.2 WB0173
20200104 153000 76.3 -69.1 WB0161
20200104 153000 76.3 -69.2 IB0820
20200104 155000 76.3 -69.2 WB0173
20200104 160000 76.3 -69.1 WB0161
20200104 162000 76.3 -69.2 WB0173
20200104 163000 76.3 -69.1 WB0161
20200104 165000 76.3 -69.2 WB0173
20200104 170000 76.3 -69.1 WB0161
20200104 171000 76.3 -69.2 IB1810
20200104 172000 76.3 -69.2 WB0173
20200104 173000 76.3 -69.1 WB0161
20200104 175000 76.3 -69.2 WB0173
20200104 180000 76.3 -69.1 WB0161
20200104 182000 76.3 -69.2 IB0820
20200104 182000 76.3 -69.2 WB0173
20200104 183000 76.3 -69.1 WB0161
20200104 185000 76.3 -69.2 WB0173
20200104 190000 76.3 -69.1 WB0161
20200104 192000 76.3 -69.2 WB0173
20200104 193000 76.3 -69.1 WB0161
20200104 195000 76.3 -69.2 WB0173
20200104 200000 76.3 -69.1 WB0161
20200104 200000 76.3 -69.2 IB1810
20200104 202000 76.3 -69.2 WB0173
20200104 203000 76.3 -69.1 WB0161
20200104 205000 76.3 -69.2 WB0173
20200104 210000 76.3 -69.1 WB0161
20200104 211000 76.3 -69.2 IB0820
20200104 212000 76.3 -69.2 WB0173
20200104 213000 76.3 -69.1 WB0161
20200104 215000 76.3 -69.2 WB0173
20200104 220000 76.3 -69.1 WB0161
20200104 222000 76.3 -69.2 WB0173
20200104 223000 76.3 -69.1 WB0161
20200104 225000 76.3 -69.2 WB0173
20200104 225000 76.3 -69.2 IB1810
20200104 230000 76.3 -69.1 WB0161
20200104 232000 76.3 -69.2 WB0173
20200104 233000 76.3 -69.1 WB0161
20200104 235000 76.3 -69.2 WB0173
20200104 235000 76.3 -69.2 IB0820
20200105 000000 76.3 -69.1 WB0161
20200105 002000 76.3 -69.2 WB0173
20200105 003000 76.3 -69.1 WB0161
20200105 005000 76.3 -69.2 WB0173
20200105 010000 76.3 -69.1 WB0161
20200105 012000 76.3 -69.2 WB0173
20200105 013000 76.3 -69.1 WB0161
20200105 014000 76.3 -69.2 IB1810
20200105 015000 76.3 -69.2 WB0173
20200105 020000 76.3 -69.1 WB0161
20200105 022000 76.3 -69.2 WB0173
20200105 023000 76.3 -69.1 WB0161
20200105 024000 76.3 -69.2 IB0820
20200105 025000 76.3 -69.2 WB0173
20200105 030000 76.3 -69.1 WB0161
20200105 032000 76.3 -69.2 WB0173
20200105 033000 76.3 -69.1 WB0161
20200105 035000 76.3 -69.2 WB0173
20200105 040000 76.3 -69.1 WB0161
20200105 042000 76.3 -69.2 WB0173
20200105 042000 76.3 -69.2 IB1810
20200105 043000 76.3 -69.1 WB0161
20200105 045000 76.3 -69.2 WB0173
20200105 050000 76.2 -69.1 WB0161
20200105 052000 76.3 -69.2 WB0173
20200105 053000 76.2 -69.1 WB0161
20200105 053000 76.3 -69.2 IB0820
20200105 055000 76.3 -69.2 WB0173
20200105 060000 76.2 -69.1 WB0161
20200105 062000 76.3 -69.2 WB0173
20200105 063000 76.2 -69.1 WB0161
20200105 065000 76.3 -69.2 WB0173
20200105 070000 76.2 -69.1 WB0161
20200105 071000 76.3 -69.2 IB1810
20200105 072000 76.3 -69.2 WB0173
20200105 073000 76.2 -69.1 WB0161
20200105 075000 76.3 -69.2 WB0173
20200105 080000 76.2 -69.1 WB0161
20200105 082000 76.3 -69.2 WB0173
20200105 082000 76.3 -69.2 IB0820
20200105 083000 76.2 -69.1 WB0161
20200105 085000 76.3 -69.2 WB0173
20200105 090000 76.2 -69.1 WB0161
20200105 092000 76.3 -69.2 WB0173
20200105 093000 76.2 -69.1 WB0161
20200105 095000 76.3 -69.2 WB0173
20200105 100000 76.2 -69.1 WB0161
20200105 100000 76.3 -69.2 IB1810
20200105 102000 76.3 -69.2 WB0173
20200105 103000 76.2 -69.1 WB0161
20200105 105000 76.3 -69.2 WB0173
20200105 110000 76.2 -69.1 WB0161
20200105 111000 76.3 -69.2 IB0820
20200105 112000 76.3 -69.2 WB0173
20200105 113000 76.2 -69.1 WB0161
20200105 115000 76.3 -69.2 WB0173
20200105 120000 76.2 -69.1 WB0161
20200105 122000 76.3 -69.2 WB0173
20200105 123000 76.2 -69.1 WB0161
20200105 124000 76.3 -69.2 IB1810
20200105 125000 76.3 -69.2 WB0173
20200105 130000 76.2 -69.1 WB0161
20200105 132000 76.3 -69.2 WB0173
20200105 133000 76.2 -69.1 WB0161
20200105 135000 76.3 -69.2 WB0173
20200105 135000 76.3 -69.2 IB0820
20200105 140000 76.2 -69.1 WB0161
20200105 142000 76.3 -69.2 WB0173
20200105 143000 76.2 -69.1 WB0161
20200105 145000 76.3 -69.2 WB0173
20200105 150000 76.2 -69.1 WB0161
20200105 152000 76.3 -69.2 WB0173
20200105 153000 76.2 -69.1 WB0161
20200105 153000 76.3 -69.2 IB1810
20200105 155000 76.3 -69.2 WB0173
20200105 160000 76.2 -69.1 WB0161
20200105 162000 76.2 -69.2 WB0173
20200105 163000 76.2 -69.1 WB0161
20200105 164000 76.3 -69.2 IB0820
20200105 165000 76.2 -69.2 WB0173
20200105 170000 76.2 -69.1 WB0161
20200105 172000 76.2 -69.2 WB0173
20200105 173000 76.2 -69.1 WB0161
20200105 175000 76.2 -69.2 WB0173
20200105 180000 76.2 -69.1 WB0161
20200105 182000 76.2 -69.2 WB0173
20200105 182000 76.2 -69.2 IB1810
20200105 183000 76.2 -69.1 WB0161
20200105 185000 76.2 -69.2 WB0173
20200105 190000 76.2 -69.1 WB0161
20200105 192000 76.2 -69.2 WB0173
20200105 193000 76.2 -69.1 WB0161
20200105 193000 76.3 -69.2 IB0820
20200105 195000 76.2 -69.2 WB0173
20200105 200000 76.2 -69.1 WB0161
20200105 202000 76.2 -69.2 WB0173
20200105 203000 76.2 -69.1 WB0161
20200105 205000 76.2 -69.2 WB0173
20200105 210000 76.2 -69.1 WB0161
20200105 211000 76.2 -69.2 IB1810
20200105 212000 76.2 -69.2 WB0173
20200105 213000 76.2 -69.1 WB0161
20200105 215000 76.2 -69.1 WB0173
20200105 220000 76.2 -69.1 WB0161
20200105 222000 76.2 -69.1 WB0173
20200105 222000 76.3 -69.2 IB0820
20200105 223000 76.2 -69.1 WB0161
20200105 225000 76.2 -69.1 WB0173
20200105 230000 76.2 -69.1 WB0161
20200105 232000 76.2 -69.1 WB0173
20200105 233000 76.1 -69.1 WB0161
20200105 235000 76.2 -69.1 WB0173
20200106 000000 76.1 -69.1 WB0161
20200106 000000 76.2 -69.1 IB1810
20200106 002000 76.2 -69.1 WB0173
20200106 003000 76.1 -69.1 WB0161
20200106 005000 76.2 -69.1 WB0173
20200106 010000 76.1 -69.1 WB0161
20200106 011000 76.3 -69.2 IB0820
20200106 012000 76.2 -69.1 WB0173
20200106 013000 76.1 -69.1 WB0161
20200106 015000 76.2 -69.1 WB0173
20200106 020000 76.1 -69.1 WB0161
20200106 022000 76.2 -69.1 WB0173
20200106 023000 76.1 -69.1 WB0161
20200106 025000 76.2 -69.1 WB0173
20200106 030000 76.1 -69.1 WB0161
20200106 032000 76.2 -69.1 WB0173
20200106 033000 76.1 -69.1 WB0161
20200106 035000 76.2 -69.1 WB0173
20200106 040000 76.3 -69.2 IB0820
20200106 040000 76.1 -69.1 WB0161
20200106 042000 76.2 -69.1 WB0173
20200106 043000 76.1 -69.1 WB0161
20200106 045000 76.2 -69.1 WB0173
20200106 045000 76.2 -69.1 IB1810
20200106 050000 76.1 -69.1 WB0161
20200106 052000 76.2 -69.1 WB0173
20200106 053000 76.1 -69.1 WB0161
20200106 055000 76.2 -69.1 WB0173
20200106 060000 76.1 -69.1 WB0161
20200106 062000 76.2 -69.1 WB0173
20200106 063000 76.1 -69.1 WB0161
20200106 064000 76.3 -69.2 IB0820
20200106 065000 76.2 -69.1 WB0173
20200106 070000 76.1 -69.1 WB0161
20200106 072000 76.2 -69.1 WB0173
20200106 073000 76.1 -69.1 WB0161
20200106 075000 76.2 -69.1 WB0173
20200106 080000 76.1 -69.1 WB0161
20200106 082000 76.2 -69.1 WB0173
20200106 083000 76.1 -69.1 WB0161
20200106 085000 76.2 -69.1 WB0173
20200106 090000 76.1 -69.1 WB0161
20200106 092000 76.2 -69.1 WB0173
20200106 093000 76.1 -69.1 WB0161
20200106 093000 76.3 -69.2 IB0820
20200106 095000 76.2 -69.1 IB1810
20200106 095000 76.2 -69.1 WB0173
20200106 100000 76.1 -69.1 WB0161
20200106 102000 76.2 -69.1 WB0173
20200106 103000 76.1 -69.1 WB0161
20200106 105000 76.2 -69.1 WB0173
20200106 110000 76.1 -69.1 WB0161
20200106 112000 76.2 -69.1 WB0173
20200106 113000 76.1 -69.1 WB0161
20200106 115000 76.2 -69.1 WB0173
20200106 120000 76.1 -69.1 WB0161
20200106 122000 76.2 -69.1 WB0173
20200106 122000 76.3 -69.2 IB0820
20200106 123000 76.1 -69.1 WB0161
20200106 123000 76.2 -69.1 IB1810
20200106 125000 76.2 -69.2 WB0173
20200106 130000 76.1 -69.1 WB0161
20200106 132000 76.2 -69.2 WB0173
20200106 133000 76.1 -69.1 WB0161
20200106 135000 76.2 -69.2 WB0173
20200106 140000 76.1 -69.1 WB0161
20200106 142000 76.2 -69.2 WB0173
20200106 143000 76.1 -69.1 WB0161
20200106 145000 76.2 -69.2 WB0173
20200106 150000 76.1 -69.2 WB0161
20200106 151000 76.3 -69.2 IB0820
20200106 152000 76.2 -69.2 WB0173
20200106 152000 76.2 -69.2 IB1810
20200106 153000 76.1 -69.2 WB0161
20200106 155000 76.2 -69.2 WB0173
20200106 160000 76.1 -69.2 WB0161
20200106 162000 76.2 -69.2 WB0173
20200106 163000 76.1 -69.2 WB0161
20200106 165000 76.1 -69.2 WB0173
20200106 170000 76.1 -69.2 WB0161
20200106 172000 76.1 -69.2 WB0173
20200106 173000 76.1 -69.2 WB0161
20200106 175000 76.1 -69.2 WB0173
20200106 180000 76.0 -69.2 WB0161
20200106 180000 76.3 -69.2 IB0820
20200106 181000 76.1 -69.2 IB1810
20200106 182000 76.1 -69.2 WB0173
20200106 183000 76.0 -69.2 WB0161
20200106 185000 76.1 -69.2 WB0173
20200106 190000 76.0 -69.2 WB0161
20200106 192000 76.1 -69.2 WB0173
20200106 193000 76.0 -69.2 WB0161
20200106 195000 76.1 -69.2 WB0173
20200106 200000 76.0 -69.2 WB0161
20200106 202000 76.1 -69.2 WB0173
20200106 203000 76.0 -69.2 WB0161
20200106 205000 76.1 -69.2 WB0173
20200106 205000 76.3 -69.2 IB0820
20200106 210000 76.0 -69.2 WB0161
20200106 210000 76.1 -69.2 IB1810
20200106 212000 76.1 -69.2 WB0173
20200106 213000 76.0 -69.2 WB0161
20200106 215000 76.1 -69.2 WB0173
20200106 220000 76.0 -69.2 WB0161
20200106 222000 76.1 -69.2 WB0173
20200106 223000 76.0 -69.2 WB0161
20200106 225000 76.1 -69.2 WB0173
20200106 230000 75.9 -69.2 WB0161
20200106 232000 76.1 -69.2 WB0173
20200106 233000 75.9 -69.2 WB0161
20200106 234000 76.3 -69.2 IB0820
20200106 235000 76.1 -69.2 IB1810
20200106 235000 76.1 -69.2 WB0173
20200107 000000 75.9 -69.2 WB0161
20200107 002000 76.1 -69.2 WB0173
20200107 003000 75.9 -69.2 WB0161
20200107 005000 76.1 -69.2 WB0173
20200107 010000 75.9 -69.2 WB0161
20200107 012000 76.1 -69.2 WB0173
20200107 013000 75.9 -69.2 WB0161
20200107 015000 76.0 -69.2 WB0173
20200107 020000 75.9 -69.2 WB0161
20200107 022000 76.0 -69.2 WB0173
20200107 022000 76.3 -69.2 IB0820
20200107 023000 75.8 -69.2 WB0161
20200107 023000 76.0 -69.2 IB1810
20200107 025000 76.0 -69.2 WB0173
20200107 032000 76.0 -69.2 WB0173
20200107 033000 75.8 -69.2 WB0161
20200107 035000 76.0 -69.2 WB0173
20200107 042000 76.0 -69.2 WB0173
20200107 045000 76.0 -69.2 WB0173
20200107 051000 76.3 -69.2 IB0820
20200107 052000 76.0 -69.2 WB0173
20200107 052000 76.0 -69.2 IB1810
20200107 053000 75.8 -69.2 WB0161
20200107 055000 76.0 -69.2 WB0173
20200107 062000 76.0 -69.2 WB0173
20200107 065000 76.0 -69.2 WB0173
20200107 072000 76.0 -69.2 WB0173
20200107 073000 75.8 -69.2 WB0161
20200107 075000 76.0 -69.2 WB0173
20200107 081000 76.3 -69.2 IB0820
20200107 081000 76.0 -69.2 IB1810
20200107 082000 76.0 -69.2 WB0173
20200107 085000 75.9 -69.2 WB0173
20200107 092000 75.9 -69.2 WB0173
20200107 093000 75.7 -69.2 WB0161
20200107 095000 75.9 -69.2 WB0173
20200107 102000 75.9 -69.2 WB0173
20200107 105000 75.9 -69.2 WB0173
20200107 110000 75.9 -69.2 IB1810
20200107 113000 75.7 -69.2 WB0161
20200107 115000 75.9 -69.2 WB0173
20200107 123000 75.7 -69.2 WB0161
20200107 135000 75.9 -69.2 IB1810
20200107 135000 76.3 -69.2 IB0820
20200107 145000 75.8 -69.2 WB0173
20200107 153000 75.7 -69.2 WB0161
20200107 163000 76.3 -69.2 IB0820
20200107 164000 75.9 -69.2 IB1810
20200107 175000 75.8 -69.2 WB0173
20200107 183000 75.7 -69.2 WB0161
20200107 193000 76.3 -69.2 IB0820
20200107 193000 75.8 -69.2 IB1810
20200107 205000 75.8 -69.2 WB0173
20200107 213000 75.7 -69.2 WB0161
20200107 222000 76.3 -69.2 IB0820
20200107 222000 75.7 -69.2 IB1810
20200107 235000 75.8 -69.2 WB0173
20200108 003000 75.7 -69.2 WB0161
20200108 011000 76.3 -69.2 IB0820
20200108 011000 75.6 -69.2 IB1810
20200108 025000 75.7 -69.2 WB0173
20200108 033000 75.6 -69.2 WB0161
20200108 040000 75.6 -69.2 IB1810
20200108 055000 75.6 -69.2 WB0173
20200108 062000 76.3 -69.2 IB0820
20200108 063000 75.6 -69.2 WB0161
20200108 065000 75.6 -69.2 IB1810
20200108 085000 75.6 -69.2 WB0173
20200108 090000 76.3 -69.2 IB0820
20200108 093000 75.6 -69.2 WB0161
20200108 094000 75.6 -69.2 IB1810
20200108 115000 75.6 -69.2 WB0173
20200108 115000 76.3 -69.2 IB0820
20200108 123000 75.6 -69.2 IB1810
20200108 123000 75.6 -69.2 WB0161
20200108 144000 76.3 -69.2 IB0820
20200108 145000 75.6 -69.2 WB0173
20200108 151000 75.6 -69.2 IB1810
20200108 153000 75.6 -69.2 WB0161
20200108 173000 76.3 -69.2 IB0820
20200108 175000 75.6 -69.2 WB0173
20200108 183000 75.6 -69.2 WB0161
20200108 202000 76.3 -69.2 IB0820
20200108 202000 75.5 -69.2 IB1810
20200108 205000 75.6 -69.2 WB0173
20200108 213000 75.6 -69.2 WB0161
20200108 231000 76.3 -69.2 IB0820
20200108 231000 75.5 -69.2 IB1810
20200108 235000 75.6 -69.2 WB0173
20200109 003000 75.6 -69.2 WB0161
20200109 020000 76.3 -69.2 IB0820
20200109 020000 75.5 -69.2 IB1810
20200109 025000 75.6 -69.2 WB0173
20200109 033000 75.6 -69.2 WB0161
20200109 045000 75.5 -69.2 IB1810
20200109 045000 76.3 -69.2 IB0820
20200109 055000 75.6 -69.2 WB0173
20200109 063000 75.6 -69.2 WB0161
20200109 073000 75.5 -69.2 IB1810
20200109 074000 76.3 -69.2 IB0820
20200109 085000 75.6 -69.2 WB0173
20200109 093000 75.6 -69.2 WB0161
20200109 102000 75.5 -69.2 IB1810
20200109 103000 76.3 -69.2 IB0820
20200109 115000 75.6 -69.2 WB0173
20200109 123000 75.6 -69.2 WB0161
20200109 131000 75.5 -69.2 IB1810
20200109 132000 76.3 -69.2 IB0820
20200109 145000 75.5 -69.2 WB0173
20200109 153000 75.6 -69.2 WB0161
20200109 160000 75.5 -69.2 IB1810
20200109 161000 76.3 -69.2 IB0820
20200109 175000 75.5 -69.2 WB0173
20200109 183000 75.6 -69.2 WB0161
20200109 184000 75.5 -69.2 IB1810
20200109 190000 76.3 -69.2 IB0820
20200109 205000 75.5 -69.2 WB0173
20200109 213000 75.6 -69.2 WB0161
20200109 213000 75.5 -69.2 IB1810
20200109 215000 76.3 -69.2 IB0820
20200109 235000 75.5 -69.2 WB0173
20200110 002000 75.5 -69.2 IB1810
20200110 003000 75.6 -69.2 WB0161
20200110 003000 76.3 -69.2 IB0820
20200110 025000 75.5 -69.2 WB0173
20200110 031000 75.5 -69.2 IB1810
20200110 032000 76.3 -69.2 IB0820
20200110 033000 75.6 -69.2 WB0161
20200110 055000 75.5 -69.2 WB0173
20200110 055000 75.5 -69.2 IB1810
20200110 061000 76.3 -69.2 IB0820
20200110 063000 75.6 -69.2 WB0161
20200110 084000 75.5 -69.2 IB1810
20200110 085000 75.5 -69.2 WB0173
20200110 090000 76.3 -69.2 IB0820
20200110 093000 75.6 -69.2 WB0161
20200110 113000 75.5 -69.2 IB1810
20200110 115000 75.5 -69.2 WB0173
20200110 123000 75.6 -69.2 WB0161
20200110 141000 76.3 -69.2 IB0820
20200110 142000 75.5 -69.2 IB1810
20200110 145000 75.5 -69.2 WB0173
20200110 153000 75.6 -69.2 WB0161
20200110 170000 76.3 -69.2 IB0820
20200110 175000 75.5 -69.2 WB0173
20200110 183000 75.6 -69.2 WB0161
20200110 193000 75.5 -69.2 IB1810
20200110 194000 76.3 -69.2 IB0820
20200110 205000 75.5 -69.2 WB0173
20200110 213000 75.6 -69.2 WB0161
20200110 221000 75.5 -69.2 IB1810
20200110 223000 76.3 -69.2 IB0820
20200110 235000 75.5 -69.2 WB0173
20200111 003000 75.6 -69.2 WB0161
20200111 010000 75.5 -69.2 IB1810
20200111 012000 76.3 -69.2 IB0820
20200111 025000 75.5 -69.2 WB0173
20200111 033000 75.6 -69.2 WB0161
20200111 035000 75.5 -69.2 IB1810
20200111 041000 76.2 -69.2 IB0820
20200111 055000 75.5 -69.2 WB0173
20200111 063000 75.5 -69.2 WB0161
20200111 063000 75.5 -69.2 IB1810
20200111 070000 76.2 -69.2 IB0820
20200111 085000 75.5 -69.2 WB0173
20200111 092000 75.5 -69.2 IB1810
20200111 093000 75.5 -69.2 WB0161
20200111 095000 76.2 -69.3 IB0820
20200111 115000 75.5 -69.2 WB0173
20200111 121000 75.5 -69.2 IB1810
20200111 123000 75.5 -69.2 WB0161
20200111 124000 76.2 -69.3 IB0820
20200111 145000 75.5 -69.2 WB0173
20200111 145000 75.5 -69.2 IB1810
20200111 153000 75.5 -69.2 WB0161
20200111 153000 76.1 -69.3 IB0820
20200111 174000 75.5 -69.2 IB1810
20200111 175000 75.5 -69.2 WB0173
20200111 182000 76.1 -69.3 IB0820
20200111 183000 75.5 -69.2 WB0161
20200111 203000 75.5 -69.2 IB1810
20200111 205000 75.5 -69.2 WB0173
20200111 211000 76.1 -69.3 IB0820
20200111 213000 75.5 -69.2 WB0161
20200111 232000 75.5 -69.2 IB1810
20200111 235000 75.5 -69.2 WB0173
20200112 000000 76.1 -69.3 IB0820
20200112 003000 75.5 -69.2 WB0161
20200112 005000 75.5 -69.2 WB0173
20200112 013000 75.5 -69.2 WB0161
20200112 020000 75.5 -69.2 IB1810
20200112 025000 76.1 -69.3 IB0820
20200112 045000 75.5 -69.2 WB0173
20200112 045000 75.5 -69.2 IB1810
20200112 053000 75.5 -69.2 WB0161
20200112 053000 76.0 -69.3 IB0820
20200112 074000 75.5 -69.2 IB1810
20200112 082000 76.0 -69.3 IB0820
20200112 085000 75.5 -69.2 WB0173
20200112 093000 75.5 -69.2 WB0161
20200112 111000 76.1 -69.3 IB0820
20200112 123000 75.5 -69.2 IB1810
20200112 125000 75.5 -69.2 WB0173
20200112 133000 75.5 -69.2 WB0161
20200112 140000 76.1 -69.3 IB0820
20200112 152000 75.5 -69.2 IB1810
20200112 165000 75.5 -69.2 WB0173
20200112 165000 76.1 -69.3 IB0820
20200112 173000 75.5 -69.2 WB0161
20200112 180000 75.5 -69.2 IB1810
20200112 194000 76.0 -69.3 IB0820
20200112 205000 75.5 -69.2 WB0173
20200112 205000 75.5 -69.2 IB1810
20200112 213000 75.5 -69.2 WB0161
20200112 223000 76.0 -69.3 IB0820
20200112 234000 75.5 -69.2 IB1810
20200113 005000 75.5 -69.2 WB0173
20200113 012000 76.0 -69.3 IB0820
20200113 013000 75.5 -69.2 WB0161
20200113 022000 75.5 -69.2 IB1810
20200113 041000 76.0 -69.3 IB0820
20200113 045000 75.5 -69.2 WB0173
20200113 051000 75.5 -69.2 IB1810
20200113 053000 75.5 -69.2 WB0161
20200113 070000 76.0 -69.3 IB0820
20200113 080000 75.5 -69.2 IB1810
20200113 085000 75.5 -69.2 WB0173
20200113 093000 75.5 -69.2 WB0161
20200113 095000 76.0 -69.3 IB0820
20200113 104000 75.5 -69.2 IB1810
20200113 123000 76.0 -69.3 IB0820
20200113 125000 75.5 -69.2 WB0173
20200113 133000 75.5 -69.2 WB0161
20200113 133000 75.5 -69.2 IB1810
20200113 152000 76.0 -69.3 IB0820
20200113 162000 75.5 -69.2 IB1810
20200113 165000 75.5 -69.2 WB0173
20200113 173000 75.5 -69.2 WB0161
20200113 181000 76.0 -69.3 IB0820
20200113 191000 75.5 -69.2 IB1810
20200113 205000 75.5 -69.2 WB0173
20200113 210000 76.0 -69.3 IB0820
20200113 213000 75.5 -69.2 WB0161
20200113 215000 75.5 -69.2 IB1810
20200113 235000 76.0 -69.3 IB0820
20200114 004000 75.5 -69.2 IB1810
20200114 005000 75.5 -69.2 WB0173
20200114 013000 75.5 -69.2 WB0161
20200114 024000 76.0 -69.3 IB0820
20200114 033000 75.5 -69.2 IB1810
20200114 045000 75.5 -69.2 WB0173
20200114 053000 75.5 -69.2 WB0161
20200114 053000 76.0 -69.3 IB0820
20200114 061000 75.5 -69.2 IB1810
20200114 085000 75.5 -69.2 WB0173
20200114 090000 75.5 -69.2 IB1810
20200114 093000 75.5 -69.2 WB0161
20200114 102000 76.0 -69.3 IB0820
20200114 115000 75.5 -69.2 IB1810
20200114 125000 75.5 -69.2 WB0173
20200114 131000 76.0 -69.3 IB0820
20200114 133000 75.5 -69.2 WB0161
20200114 144000 75.5 -69.2 IB1810
20200114 160000 76.0 -69.3 IB0820
20200114 165000 75.5 -69.2 WB0173
20200114 172000 75.5 -69.2 IB1810
20200114 173000 75.5 -69.2 WB0161
20200114 185000 76.0 -69.3 IB0820
20200114 201000 75.5 -69.2 IB1810
20200114 205000 75.5 -69.2 WB0173
20200114 213000 75.5 -69.2 WB0161
20200114 214000 76.0 -69.3 IB0820
20200114 230000 75.5 -69.2 IB1810
20200115 003000 76.0 -69.3 IB0820
20200115 005000 75.5 -69.2 WB0173
20200115 013000 75.5 -69.2 WB0161
20200115 015000 75.5 -69.2 IB1810
20200115 032000 76.0 -69.2 IB0820
20200115 044000 75.5 -69.2 IB1810
20200115 045000 75.5 -69.2 WB0173
20200115 053000 75.5 -69.2 WB0161
20200115 061000 76.0 -69.2 IB0820
20200115 072000 75.5 -69.2 IB1810
20200115 085000 75.5 -69.2 WB0173
20200115 090000 75.9 -69.2 IB0820
20200115 093000 75.5 -69.2 WB0161
20200115 101000 75.5 -69.2 IB1810
20200115 115000 75.9 -69.2 IB0820
20200115 125000 75.5 -69.2 WB0173
20200115 130000 75.5 -69.2 IB1810
20200115 133000 75.5 -69.2 WB0161
20200115 144000 75.9 -69.2 IB0820
20200115 155000 75.5 -69.2 IB1810
20200115 165000 75.5 -69.2 WB0173
20200115 173000 75.5 -69.3 WB0161
20200115 184000 75.5 -69.2 IB1810
20200115 192000 75.8 -69.2 IB0820
20200115 205000 75.5 -69.2 WB0173
20200115 213000 75.5 -69.2 IB1810
20200115 213000 75.5 -69.3 WB0161
20200115 221000 75.8 -69.2 IB0820
20200116 002000 75.5 -69.2 IB1810
20200116 005000 75.5 -69.2 WB0173
20200116 010000 75.8 -69.2 IB0820
20200116 013000 75.5 -69.3 WB0161
20200116 030000 75.4 -69.2 IB1810
20200116 035000 75.7 -69.2 IB0820
20200116 045000 75.5 -69.2 WB0173
20200116 053000 75.4 -69.3 WB0161
20200116 055000 75.4 -69.2 IB1810
20200116 084000 75.4 -69.2 IB1810
20200116 085000 75.5 -69.2 WB0173
20200116 092000 75.7 -69.2 IB0820
20200116 093000 75.4 -69.3 WB0161
20200116 113000 75.4 -69.2 IB1810
20200116 121000 75.6 -69.2 IB0820
20200116 125000 75.4 -69.2 WB0173
20200116 133000 75.4 -69.3 WB0161
20200116 150000 75.6 -69.2 IB0820
20200116 163000 75.4 -69.2 IB1810
20200116 165000 75.4 -69.2 WB0173
20200116 173000 75.4 -69.3 WB0161
20200116 175000 75.6 -69.2 IB0820
20200116 192000 75.4 -69.2 IB1810
20200116 205000 75.4 -69.2 WB0173
20200116 213000 75.4 -69.3 WB0161
20200116 221000 75.4 -69.2 IB1810
20200116 234000 75.5 -69.2 IB0820
20200117 005000 75.4 -69.2 WB0173
20200117 010000 75.4 -69.2 IB1810
20200117 013000 75.4 -69.3 WB0161
20200117 023000 75.5 -69.2 IB0820
20200117 034000 75.4 -69.2 IB1810
20200117 045000 75.4 -69.2 WB0173
20200117 053000 75.4 -69.3 WB0161
20200117 063000 75.4 -69.2 IB1810
20200117 082000 75.5 -69.2 IB0820
20200117 085000 75.4 -69.2 WB0173
20200117 092000 75.4 -69.2 IB1810
20200117 093000 75.4 -69.3 WB0161
20200117 121000 75.4 -69.2 IB1810
20200117 125000 75.4 -69.2 WB0173
20200117 133000 75.4 -69.3 WB0161
20200117 141000 75.5 -69.1 IB0820
20200117 150000 75.4 -69.2 IB1810
20200117 165000 75.4 -69.2 WB0173
20200117 173000 75.4 -69.3 WB0161
20200117 175000 75.4 -69.2 IB1810
20200117 200000 75.4 -69.1 IB0820
20200117 203000 75.4 -69.2 IB1810
20200117 205000 75.4 -69.2 WB0173
20200117 213000 75.4 -69.3 WB0161
20200117 225000 75.4 -69.1 IB0820
20200117 232000 75.4 -69.2 IB1810
20200118 005000 75.4 -69.2 WB0173
20200118 014000 75.3 -69.1 IB0820
20200118 021000 75.4 -69.2 IB1810
20200118 044000 75.3 -69.1 IB0820
20200118 045000 75.4 -69.2 WB0173
20200118 050000 75.4 -69.2 IB1810
20200118 075000 75.4 -69.2 IB1810
20200118 085000 75.4 -69.2 WB0173
20200118 103000 75.3 -69.1 IB0820
20200118 103000 75.4 -69.2 IB1810
20200118 125000 75.4 -69.2 WB0173
20200118 132000 75.3 -69.2 IB1810
20200118 152000 75.3 -69.1 IB0820
20200118 165000 75.3 -69.2 WB0173
20200118 181000 75.3 -69.2 IB1810
20200118 205000 75.3 -69.2 WB0173
20200118 205000 75.3 -69.2 IB1810
20200118 230000 75.2 -69.1 IB0820
20200119 005000 75.3 -69.2 WB0173
20200119 013000 75.3 -69.3 WB0161
20200119 014000 75.3 -69.2 IB1810
20200119 045000 75.3 -69.2 WB0173
20200119 045000 75.2 -69.1 IB0820
20200119 053000 75.3 -69.3 WB0161
20200119 071000 75.3 -69.2 IB1810
20200119 085000 75.3 -69.2 WB0173
20200119 093000 75.3 -69.3 WB0161
20200119 100000 75.3 -69.2 IB1810
20200119 101000 75.2 -69.1 IB0820
20200119 125000 75.3 -69.2 IB1810
20200119 125000 75.3 -69.2 WB0173
20200119 133000 75.3 -69.3 WB0161
20200119 153000 75.3 -69.2 IB1810
20200119 155000 75.2 -69.1 IB0820
20200119 165000 75.3 -69.2 WB0173
20200119 173000 75.3 -69.3 WB0161
20200119 182000 75.3 -69.2 IB1810
20200119 205000 75.3 -69.2 WB0173
20200119 211000 75.3 -69.2 IB1810
20200119 213000 75.3 -69.3 WB0161
20200120 000000 75.3 -69.2 IB1810
20200120 005000 75.3 -69.2 WB0173
20200120 013000 75.3 -69.3 WB0161
20200120 024000 75.2 -69.1 IB0820
20200120 024000 75.3 -69.2 IB1810
20200120 045000 75.3 -69.2 WB0173
20200120 053000 75.3 -69.3 WB0161
20200120 053000 75.2 -69.2 IB1810
20200120 082000 75.2 -69.2 IB1810
20200120 084000 75.1 -69.1 IB0820
20200120 085000 75.2 -69.2 WB0173
20200120 093000 75.3 -69.3 WB0161
20200120 111000 75.2 -69.2 IB1810
20200120 125000 75.2 -69.2 WB0173
20200120 133000 75.3 -69.3 WB0161
20200120 135000 75.2 -69.2 IB1810
20200120 164000 75.2 -69.2 IB1810
20200120 165000 75.2 -69.2 WB0173
20200120 173000 75.3 -69.3 WB0161
20200120 193000 75.2 -69.2 IB1810
20200120 205000 75.2 -69.2 WB0173
20200120 213000 75.3 -69.3 WB0161
20200120 221000 75.2 -69.2 IB1810
20200121 005000 75.2 -69.2 WB0173
20200121 013000 75.3 -69.3 WB0161
20200121 030000 75.2 -69.2 IB1810
20200121 045000 75.2 -69.2 WB0173
20200121 053000 75.3 -69.3 WB0161
20200121 055000 75.2 -69.2 IB1810
20200121 081000 75.1 -69.1 IB0820
20200121 084000 75.2 -69.2 IB1810
20200121 085000 75.2 -69.2 WB0173
20200121 093000 75.3 -69.3 WB0161
20200121 113000 75.2 -69.2 IB1810
20200121 125000 75.2 -69.2 WB0173
20200121 133000 75.3 -69.3 WB0161
20200121 141000 75.2 -69.2 IB1810
20200121 165000 75.2 -69.2 WB0173
20200121 170000 75.1 -69.1 IB0820
20200121 170000 75.1 -69.2 IB1810
20200121 173000 75.3 -69.3 WB0161
20200121 195000 75.1 -69.2 IB1810
20200121 205000 75.1 -69.2 WB0173
20200121 213000 75.3 -69.3 WB0161
20200121 224000 75.1 -69.2 IB1810
20200121 225000 75.0 -69.1 IB0820
20200122 005000 75.1 -69.2 WB0173
20200122 013000 75.1 -69.2 IB1810
20200122 013000 75.3 -69.3 WB0161
20200122 014000 75.0 -69.1 IB0820
20200122 041000 75.1 -69.2 IB1810
20200122 045000 75.1 -69.2 WB0173
20200122 053000 75.3 -69.3 WB0161
20200122 070000 75.1 -69.2 IB1810
20200122 085000 75.1 -69.2 WB0173
20200122 093000 75.3 -69.3 WB0161
20200122 095000 75.1 -69.2 IB1810
20200122 124000 75.1 -69.2 IB1810
20200122 125000 75.1 -69.2 WB0173
20200122 133000 75.3 -69.3 WB0161
20200122 153000 75.1 -69.1 IB1810
20200122 165000 75.1 -69.2 WB0173
20200122 173000 75.3 -69.3 WB0161
20200122 182000 75.1 -69.1 IB1810
20200122 205000 75.1 -69.1 WB0173
20200122 210000 75.0 -69.1 IB1810
20200122 213000 75.3 -69.3 WB0161
20200123 000000 75.0 -69.1 IB1810
20200123 005000 75.0 -69.1 WB0173
20200123 012000 75.0 -69.1 WB0173
20200123 013000 75.3 -69.3 WB0161
20200123 015000 75.0 -69.1 WB0173
20200123 020000 75.3 -69.3 WB0161
20200123 022000 75.0 -69.1 WB0173
20200123 023000 75.3 -69.3 WB0161
20200123 024000 75.0 -69.1 IB1810
20200123 025000 75.0 -69.1 WB0173
20200123 030000 75.3 -69.3 WB0161
20200123 032000 75.0 -69.1 WB0173
20200123 033000 75.3 -69.3 WB0161
20200123 035000 75.0 -69.1 WB0173
20200123 040000 75.3 -69.3 WB0161
20200123 042000 75.0 -69.1 WB0173
20200123 043000 75.3 -69.3 WB0161
20200123 045000 75.0 -69.1 WB0173
20200123 050000 75.3 -69.3 WB0161
20200123 052000 75.0 -69.1 WB0173
20200123 053000 75.3 -69.3 WB0161
20200123 055000 75.0 -69.1 WB0173
20200123 060000 75.3 -69.3 WB0161
20200123 062000 75.0 -69.1 WB0173
20200123 063000 75.3 -69.3 WB0161
20200123 065000 75.0 -69.1 WB0173
20200123 070000 75.3 -69.3 WB0161
20200123 072000 75.0 -69.1 WB0173
20200123 073000 75.3 -69.3 WB0161
20200123 074000 75.0 -69.1 IB1810
20200123 075000 75.0 -69.1 WB0173
20200123 080000 75.3 -69.3 WB0161
20200123 082000 75.0 -69.1 WB0173
20200123 083000 75.3 -69.3 WB0161
20200123 085000 75.0 -69.1 WB0173
20200123 090000 75.3 -69.3 WB0161
20200123 092000 75.0 -69.1 WB0173
20200123 093000 75.3 -69.3 WB0161
20200123 095000 75.0 -69.1 WB0173
20200123 100000 75.3 -69.3 WB0161
20200123 102000 75.0 -69.1 WB0173
20200123 103000 75.3 -69.3 WB0161
20200123 103000 75.0 -69.1 IB1810
20200123 105000 75.0 -69.1 WB0173
20200123 110000 75.3 -69.3 WB0161
20200123 112000 75.0 -69.1 WB0173
20200123 113000 75.3 -69.3 WB0161
20200123 115000 75.0 -69.1 WB0173
20200123 120000 75.3 -69.3 WB0161
20200123 122000 75.0 -69.1 WB0173
20200123 123000 75.3 -69.3 WB0161
20200123 125000 75.0 -69.1 WB0173
20200123 130000 75.3 -69.3 WB0161
20200123 131000 75.0 -69.1 IB1810
20200123 132000 75.0 -69.1 WB0173
20200123 133000 75.3 -69.3 WB0161
20200123 135000 75.0 -69.1 WB0173
20200123 140000 75.3 -69.3 WB0161
20200123 142000 75.0 -69.1 WB0173
20200123 143000 75.3 -69.3 WB0161
20200123 145000 75.0 -69.1 WB0173
20200123 150000 75.3 -69.3 WB0161
20200123 152000 75.0 -69.1 WB0173
20200123 153000 75.3 -69.3 WB0161
20200123 155000 75.0 -69.1 WB0173
20200123 160000 75.3 -69.3 WB0161
20200123 160000 75.0 -69.1 IB1810
20200123 162000 75.0 -69.1 WB0173
20200123 163000 75.3 -69.3 WB0161
20200123 165000 75.0 -69.1 WB0173
20200123 170000 75.3 -69.3 WB0161
20200123 172000 75.0 -69.1 WB0173
20200123 173000 75.3 -69.3 WB0161
20200123 175000 75.0 -69.1 WB0173
20200123 180000 75.3 -69.3 WB0161
20200123 182000 75.0 -69.1 WB0173
20200123 183000 75.3 -69.3 WB0161
20200123 185000 75.0 -69.1 WB0173
20200123 185000 75.0 -69.1 IB1810
20200123 190000 75.3 -69.3 WB0161
20200123 192000 75.0 -69.1 WB0173
20200123 193000 75.3 -69.3 WB0161
20200123 195000 75.0 -69.1 WB0173
20200123 200000 75.3 -69.3 WB0161
20200123 202000 75.0 -69.1 WB0173
20200123 203000 75.3 -69.3 WB0161
20200123 205000 75.0 -69.1 WB0173
20200123 210000 75.3 -69.3 WB0161
20200123 212000 75.0 -69.1 WB0173
20200123 213000 75.3 -69.3 WB0161
20200123 215000 75.0 -69.1 WB0173
20200123 220000 75.3 -69.3 WB0161
20200123 222000 75.0 -69.1 WB0173
20200123 223000 75.3 -69.3 WB0161
20200123 225000 75.0 -69.1 WB0173
20200123 230000 75.3 -69.3 WB0161
20200123 232000 75.0 -69.1 WB0173
20200123 233000 75.3 -69.3 WB0161
20200123 235000 75.0 -69.1 WB0173
20200124 000000 75.3 -69.3 WB0161
20200124 000000 74.9 -69.1 IB1810
20200124 002000 75.0 -69.1 WB0173
20200124 003000 75.3 -69.3 WB0161
20200124 005000 75.0 -69.1 WB0173
20200124 010000 75.3 -69.3 WB0161
20200124 012000 74.9 -69.1 WB0173
20200124 013000 75.3 -69.3 WB0161
20200124 015000 74.9 -69.1 WB0173
20200124 020000 75.3 -69.3 WB0161
20200124 022000 74.9 -69.1 WB0173
20200124 023000 75.3 -69.3 WB0161
20200124 025000 74.9 -69.1 IB1810
20200124 025000 74.9 -69.1 WB0173
20200124 030000 75.3 -69.3 WB0161
20200124 032000 74.9 -69.1 WB0173
20200124 033000 75.3 -69.3 WB0161
20200124 035000 74.9 -69.1 WB0173
20200124 040000 75.3 -69.3 WB0161
20200124 042000 74.9 -69.1 WB0173
20200124 043000 75.3 -69.3 WB0161
20200124 045000 74.9 -69.1 WB0173
20200124 050000 75.3 -69.3 WB0161
20200124 052000 74.9 -69.1 WB0173
20200124 053000 75.3 -69.3 WB0161
20200124 055000 74.9 -69.1 WB0173
20200124 060000 75.3 -69.3 WB0161
20200124 062000 74.9 -69.1 WB0173
20200124 063000 75.3 -69.3 WB0161
20200124 065000 74.9 -69.1 WB0173
20200124 070000 75.3 -69.3 WB0161
20200124 072000 74.9 -69.1 WB0173
20200124 073000 75.3 -69.3 WB0161
20200124 074000 74.9 -69.1 IB1810
20200124 075000 74.9 -69.1 WB0173
20200124 080000 75.3 -69.3 WB0161
20200124 082000 74.9 -69.1 WB0173
20200124 083000 75.3 -69.3 WB0161
20200124 085000 74.9 -69.1 WB0173
20200124 090000 75.3 -69.3 WB0161
20200124 092000 74.9 -69.1 WB0173
20200124 093000 75.3 -69.3 WB0161
20200124 095000 74.9 -69.1 WB0173
20200124 100000 75.3 -69.3 WB0161
20200124 102000 74.9 -69.1 WB0173
20200124 102000 74.9 -69.1 IB1810
20200124 103000 75.3 -69.3 WB0161
20200124 105000 74.9 -69.1 WB0173
20200124 110000 75.3 -69.3 WB0161
20200124 112000 74.9 -69.1 WB0173
20200124 113000 75.3 -69.3 WB0161
20200124 115000 74.9 -69.1 WB0173
20200124 120000 75.3 -69.2 WB0161
20200124 122000 74.9 -69.1 WB0173
20200124 123000 75.3 -69.2 WB0161
20200124 125000 74.9 -69.1 WB0173
20200124 130000 75.3 -69.2 WB0161
20200124 131000 74.9 -69.1 IB1810
20200124 132000 74.9 -69.1 WB0173
20200124 133000 75.3 -69.2 WB0161
20200124 135000 74.9 -69.1 WB0173
20200124 140000 75.3 -69.2 WB0161
20200124 142000 74.9 -69.1 WB0173
20200124 143000 75.3 -69.2 WB0161
20200124 145000 74.9 -69.1 WB0173
20200124 150000 75.3 -69.2 WB0161
20200124 152000 74.9 -69.1 WB0173
20200124 153000 75.2 -69.2 WB0161
20200124 155000 74.9 -69.1 WB0173
20200124 160000 75.2 -69.2 WB0161
20200124 160000 74.9 -69.1 IB1810
20200124 162000 74.9 -69.1 WB0173
20200124 163000 75.2 -69.2 WB0161
20200124 165000 74.9 -69.1 WB0173
20200124 170000 75.2 -69.2 WB0161
20200124 172000 74.9 -69.1 WB0173
20200124 173000 75.2 -69.2 WB0161
20200124 175000 74.9 -69.1 WB0173
20200124 180000 75.2 -69.2 WB0161
20200124 182000 74.9 -69.1 WB0173
20200124 183000 75.2 -69.2 WB0161
20200124 185000 74.9 -69.1 WB0173
20200124 185000 74.9 -69.1 IB1810
20200124 190000 75.2 -69.2 WB0161
20200124 192000 74.9 -69.1 WB0173
20200124 193000 75.1 -69.2 WB0161
20200124 195000 74.9 -69.1 WB0173
20200124 200000 75.1 -69.2 WB0161
20200124 202000 74.9 -69.1 WB0173
20200124 203000 75.1 -69.2 WB0161
20200124 205000 74.9 -69.1 WB0173
20200124 210000 75.1 -69.2 WB0161
20200124 212000 74.9 -69.1 WB0173
20200124 213000 75.1 -69.2 WB0161
20200124 214000 74.9 -69.1 IB1810
20200124 215000 74.9 -69.1 WB0173
20200124 220000 75.1 -69.2 WB0161
20200124 222000 74.9 -69.1 WB0173
20200124 223000 75.1 -69.2 WB0161
20200124 225000 74.9 -69.1 WB0173
20200124 230000 75.1 -69.2 WB0161
20200124 232000 74.9 -69.1 WB0173
20200124 233000 75.1 -69.2 WB0161
20200124 235000 74.9 -69.1 WB0173
20200125 000000 75.0 -69.2 WB0161
20200125 002000 74.9 -69.1 WB0173
20200125 002000 74.9 -69.1 IB1810
20200125 003000 75.0 -69.2 WB0161
20200125 005000 74.9 -69.1 WB0173
20200125 010000 75.0 -69.2 WB0161
20200125 012000 74.9 -69.1 WB0173
20200125 013000 75.0 -69.2 WB0161
20200125 015000 74.9 -69.1 WB0173
20200125 020000 75.0 -69.2 WB0161
20200125 022000 74.9 -69.1 WB0173
20200125 023000 75.0 -69.2 WB0161
20200125 025000 74.9 -69.1 WB0173
20200125 030000 75.0 -69.2 WB0161
20200125 031000 74.9 -69.1 IB1810
20200125 032000 74.9 -69.1 WB0173
20200125 033000 75.0 -69.2 WB0161
20200125 035000 74.9 -69.1 WB0173
20200125 040000 75.0 -69.2 WB0161
20200125 042000 74.9 -69.1 WB0173
20200125 043000 75.0 -69.2 WB0161
20200125 045000 74.9 -69.1 WB0173
20200125 050000 75.0 -69.2 WB0161
20200125 052000 74.9 -69.1 WB0173
20200125 053000 75.0 -69.2 WB0161
20200125 055000 74.9 -69.1 WB0173
20200125 060000 75.0 -69.2 WB0161
20200125 060000 74.9 -69.1 IB1810
20200125 062000 74.9 -69.1 WB0173
20200125 063000 75.0 -69.2 WB0161
20200125 065000 74.9 -69.1 WB0173
20200125 070000 75.0 -69.2 WB0161
20200125 072000 74.9 -69.1 WB0173
20200125 073000 75.0 -69.2 WB0161
20200125 075000 74.9 -69.1 WB0173
20200125 080000 75.0 -69.2 WB0161
20200125 082000 74.9 -69.1 WB0173
20200125 083000 75.0 -69.2 WB0161
20200125 085000 74.9 -69.1 IB1810
20200125 085000 74.9 -69.1 WB0173
20200125 090000 75.0 -69.2 WB0161
20200125 092000 74.9 -69.1 WB0173
20200125 093000 75.0 -69.2 WB0161
20200125 095000 74.9 -69.1 WB0173
20200125 100000 75.0 -69.2 WB0161
20200125 102000 74.9 -69.1 WB0173
20200125 103000 75.0 -69.2 WB0161
20200125 105000 74.9 -69.1 WB0173
20200125 110000 75.0 -69.2 WB0161
20200125 112000 74.9 -69.1 WB0173
20200125 113000 75.0 -69.2 WB0161
20200125 113000 74.9 -69.1 IB1810
20200125 115000 74.9 -69.1 WB0173
20200125 120000 75.0 -69.2 WB0161
20200125 122000 74.9 -69.1 WB0173
20200125 123000 75.0 -69.2 WB0161
20200125 125000 74.9 -69.1 WB0173
20200125 130000 75.0 -69.2 WB0161
20200125 132000 74.9 -69.1 WB0173
20200125 133000 75.0 -69.2 WB0161
20200125 135000 74.9 -69.1 WB0173
20200125 140000 75.0 -69.2 WB0161
20200125 142000 74.9 -69.1 WB0173
20200125 143000 75.0 -69.2 WB0161
20200125 145000 74.9 -69.1 WB0173
20200125 150000 75.0 -69.2 WB0161
20200125 152000 74.9 -69.1 WB0173
20200125 153000 75.0 -69.2 WB0161
20200125 155000 74.9 -69.1 WB0173
20200125 160000 75.0 -69.2 WB0161
20200125 162000 74.9 -69.1 WB0173
20200125 163000 75.0 -69.2 WB0161
20200125 165000 74.9 -69.1 WB0173
20200125 170000 75.0 -69.2 WB0161
20200125 171000 74.9 -69.1 IB1810
20200125 172000 74.9 -69.1 WB0173
20200125 173000 75.0 -69.2 WB0161
20200125 175000 74.9 -69.1 WB0173
20200125 180000 75.0 -69.2 WB0161
20200125 182000 74.9 -69.1 WB0173
20200125 183000 75.0 -69.2 WB0161
20200125 185000 74.9 -69.1 WB0173
20200125 190000 75.0 -69.2 WB0161
20200125 192000 74.9 -69.1 WB0173
20200125 193000 74.9 -69.2 WB0161
20200125 195000 74.9 -69.1 WB0173
20200125 200000 74.9 -69.2 WB0161
20200125 200000 74.9 -69.1 IB1810
20200125 202000 74.9 -69.1 WB0173
20200125 203000 74.9 -69.2 WB0161
20200125 205000 74.9 -69.1 WB0173
20200125 210000 74.9 -69.2 WB0161
20200125 212000 74.9 -69.1 WB0173
20200125 213000 74.9 -69.2 WB0161
20200125 215000 74.9 -69.1 WB0173
20200125 220000 74.9 -69.2 WB0161
20200125 222000 74.9 -69.1 WB0173
20200125 223000 74.9 -69.2 WB0161
20200125 225000 74.9 -69.1 WB0173
20200125 225000 74.9 -69.1 IB1810
20200125 230000 74.9 -69.2 WB0161
20200125 232000 74.9 -69.1 WB0173
20200125 233000 74.9 -69.2 WB0161
20200125 235000 74.9 -69.1 WB0173
20200126 000000 74.9 -69.2 WB0161
20200126 002000 74.9 -69.1 WB0173
20200126 003000 74.9 -69.2 WB0161
20200126 005000 74.9 -69.1 WB0173
20200126 010000 74.9 -69.2 WB0161
20200126 012000 74.9 -69.1 WB0173
20200126 013000 74.9 -69.2 WB0161
20200126 014000 74.9 -69.1 IB1810
20200126 015000 74.9 -69.1 WB0173
20200126 020000 74.9 -69.2 WB0161
20200126 022000 74.9 -69.1 WB0173
20200126 023000 74.9 -69.2 WB0161
20200126 025000 74.9 -69.1 WB0173
20200126 030000 74.9 -69.2 WB0161
20200126 032000 74.9 -69.1 WB0173
20200126 033000 74.9 -69.2 WB0161
20200126 035000 74.9 -69.1 WB0173
20200126 040000 75.0 -69.2 WB0161
20200126 042000 74.9 -69.1 WB0173
20200126 043000 74.9 -69.1 IB1810
20200126 043000 75.0 -69.2 WB0161
20200126 045000 74.9 -69.1 WB0173
20200126 050000 75.0 -69.2 WB0161
20200126 052000 74.9 -69.1 WB0173
20200126 053000 75.0 -69.2 WB0161
20200126 055000 74.9 -69.1 WB0173
20200126 060000 75.0 -69.2 WB0161
20200126 062000 74.9 -69.1 WB0173
20200126 063000 75.0 -69.2 WB0161
20200126 065000 74.9 -69.1 WB0173
20200126 070000 75.0 -69.2 WB0161
20200126 072000 74.9 -69.1 WB0173
20200126 073000 75.0 -69.1 WB0161
20200126 075000 74.9 -69.1 WB0173
20200126 080000 75.0 -69.1 WB0161
20200126 082000 74.9 -69.1 WB0173
20200126 083000 75.0 -69.1 WB0161
20200126 085000 74.9 -69.1 WB0173
20200126 090000 75.0 -69.1 WB0161
20200126 091000 74.9 -69.1 IB1810
20200126 092000 74.9 -69.1 WB0173
20200126 093000 75.0 -69.1 WB0161
20200126 095000 74.9 -69.1 WB0173
20200126 100000 75.0 -69.1 WB0161
20200126 102000 74.9 -69.1 WB0173
20200126 103000 75.0 -69.1 WB0161
20200126 105000 74.9 -69.1 WB0173
20200126 110000 75.0 -69.1 WB0161
20200126 112000 74.9 -69.1 WB0173
20200126 113000 75.0 -69.1 WB0161
20200126 115000 74.9 -69.1 WB0173
20200126 115000 74.9 -69.1 IB1810
20200126 120000 75.0 -69.1 WB0161
20200126 122000 74.9 -69.1 WB0173
20200126 123000 75.0 -69.1 WB0161
20200126 125000 74.9 -69.1 WB0173
20200126 130000 75.0 -69.1 WB0161
20200126 132000 74.9 -69.1 WB0173
20200126 133000 75.0 -69.1 WB0161
20200126 135000 74.9 -69.1 WB0173
20200126 140000 75.0 -69.1 WB0161
20200126 142000 74.9 -69.1 WB0173
20200126 143000 75.0 -69.1 WB0161
20200126 145000 74.9 -69.1 IB1810
20200126 145000 74.9 -69.1 WB0173
20200126 150000 75.0 -69.1 WB0161
20200126 152000 74.9 -69.1 WB0173
20200126 153000 75.0 -69.1 WB0161
20200126 155000 74.9 -69.1 WB0173
20200126 160000 75.0 -69.1 WB0161
20200126 162000 74.9 -69.1 WB0173
20200126 163000 75.0 -69.1 WB0161
20200126 165000 74.9 -69.1 WB0173
20200126 170000 75.0 -69.1 WB0161
20200126 172000 74.9 -69.1 WB0173
20200126 173000 75.0 -69.1 WB0161
20200126 175000 74.9 -69.1 WB0173
20200126 180000 75.0 -69.1 WB0161
20200126 182000 74.9 -69.1 WB0173
20200126 183000 75.0 -69.1 WB0161
20200126 185000 74.9 -69.1 WB0173
20200126 190000 75.0 -69.1 WB0161
20200126 192000 74.9 -69.1 WB0173
20200126 193000 75.0 -69.1 WB0161
20200126 195000 74.9 -69.1 WB0173
20200126 195000 74.9 -69.1 IB1810
20200126 200000 75.0 -69.1 WB0161
20200126 202000 74.9 -69.1 WB0173
20200126 203000 75.0 -69.1 WB0161
20200126 205000 74.9 -69.1 WB0173
20200126 210000 75.1 -69.1 WB0161
20200126 212000 74.9 -69.1 WB0173
20200126 213000 75.1 -69.1 WB0161
20200126 215000 74.9 -69.0 WB0173
20200126 220000 75.1 -69.1 WB0161
20200126 222000 74.9 -69.0 WB0173
20200126 223000 75.1 -69.1 WB0161
20200126 224000 74.9 -69.0 IB1810
20200126 225000 74.9 -69.0 WB0173
20200126 230000 75.1 -69.1 WB0161
20200126 232000 74.9 -69.0 WB0173
20200126 233000 75.1 -69.1 WB0161
20200126 235000 74.9 -69.0 WB0173
20200127 000000 75.1 -69.1 WB0161
20200127 002000 74.9 -69.0 WB0173
20200127 003000 75.1 -69.1 WB0161
20200127 005000 74.9 -69.0 WB0173
20200127 010000 75.1 -69.1 WB0161
20200127 012000 74.9 -69.0 WB0173
20200127 012000 74.9 -69.0 IB1810
20200127 013000 75.1 -69.1 WB0161
20200127 015000 74.9 -69.0 WB0173
20200127 020000 75.1 -69.1 WB0161
20200127 022000 74.9 -69.0 WB0173
20200127 023000 75.1 -69.1 WB0161
20200127 025000 74.9 -69.0 WB0173
20200127 030000 75.1 -69.1 WB0161
20200127 032000 74.9 -69.0 WB0173
20200127 033000 75.1 -69.1 WB0161
20200127 035000 74.9 -69.0 WB0173
20200127 040000 75.1 -69.1 WB0161
20200127 041000 74.9 -69.0 IB1810
20200127 042000 74.9 -69.0 WB0173
20200127 043000 75.1 -69.1 WB0161
20200127 045000 74.9 -69.0 WB0173
20200127 050000 75.1 -69.1 WB0161
20200127 052000 74.9 -69.0 WB0173
20200127 053000 75.1 -69.1 WB0161
20200127 055000 74.9 -69.0 WB0173
20200127 060000 75.1 -69.1 WB0161
20200127 062000 74.9 -69.0 WB0173
20200127 063000 75.1 -69.1 WB0161
20200127 065000 74.9 -69.0 WB0173
20200127 070000 75.2 -69.1 WB0161
20200127 070000 74.9 -69.0 IB1810
20200127 072000 74.9 -69.0 WB0173
20200127 073000 75.2 -69.1 WB0161
20200127 075000 74.9 -69.0 WB0173
20200127 080000 75.2 -69.1 WB0161
20200127 082000 74.9 -69.0 WB0173
20200127 083000 75.2 -69.1 WB0161
20200127 085000 74.9 -69.0 WB0173
20200127 090000 75.2 -69.1 WB0161
20200127 092000 74.9 -69.0 WB0173
20200127 093000 75.2 -69.1 WB0161
20200127 094000 74.9 -69.0 IB1810
20200127 095000 74.9 -69.0 WB0173
20200127 100000 75.2 -69.0 WB0161
20200127 102000 74.9 -69.0 WB0173
20200127 103000 75.2 -69.0 WB0161
20200127 105000 74.9 -69.0 WB0173
20200127 110000 75.2 -69.0 WB0161
20200127 112000 74.9 -69.0 WB0173
20200127 113000 75.2 -69.0 WB0161
20200127 115000 74.9 -69.0 WB0173
20200127 120000 75.2 -69.0 WB0161
20200127 122000 74.9 -69.0 WB0173
20200127 123000 75.2 -69.0 WB0161
20200127 123000 74.9 -69.0 IB1810
20200127 125000 74.9 -69.0 WB0173
20200127 130000 75.2 -69.0 WB0161
20200127 132000 74.9 -69.0 WB0173
20200127 133000 75.2 -69.0 WB0161
20200127 135000 74.9 -69.0 WB0173
20200127 140000 75.2 -69.0 WB0161
20200127 142000 74.9 -69.0 WB0173
20200127 143000 75.2 -69.0 WB0161
20200127 145000 74.9 -69.0 WB0173
20200127 150000 75.2 -69.0 WB0161
20200127 152000 74.9 -69.0 WB0173
20200127 153000 75.2 -69.0 WB0161
20200127 155000 74.9 -69.0 WB0173
20200127 160000 75.2 -69.0 WB0161
20200127 162000 74.9 -69.0 WB0173
20200127 163000 75.2 -69.0 WB0161
20200127 165000 74.9 -69.0 WB0173
20200127 170000 75.2 -69.0 WB0161
20200127 172000 74.9 -69.0 WB0173
20200127 173000 75.2 -69.0 WB0161
20200127 175000 74.9 -69.0 WB0173
20200127 180000 75.2 -69.0 WB0161
20200127 181000 74.9 -69.0 IB1810
20200127 182000 74.9 -69.0 WB0173
20200127 183000 75.2 -69.1 WB0161
20200127 185000 74.9 -69.0 WB0173
20200127 190000 75.2 -69.1 WB0161
20200127 192000 74.9 -69.0 WB0173
20200127 193000 75.2 -69.1 WB0161
20200127 195000 74.9 -69.0 WB0173
20200127 200000 75.2 -69.1 WB0161
20200127 202000 74.9 -69.0 WB0173
20200127 203000 75.2 -69.1 WB0161
20200127 205000 74.9 -69.0 WB0173
20200127 210000 74.8 -69.0 IB1810
20200127 210000 75.2 -69.1 WB0161
20200127 212000 74.9 -69.0 WB0173
20200127 213000 75.2 -69.1 WB0161
20200127 215000 74.9 -69.0 WB0173
20200127 220000 75.2 -69.1 WB0161
20200127 222000 74.9 -69.0 WB0173
20200127 223000 75.2 -69.1 WB0161
20200127 225000 74.9 -69.0 WB0173
20200127 230000 75.2 -69.1 WB0161
20200127 232000 74.9 -69.0 WB0173
20200127 233000 75.2 -69.1 WB0161
20200127 234000 74.9 -69.0 IB1810
20200127 235000 74.9 -69.0 WB0173
20200128 000000 75.2 -69.1 WB0161
20200128 002000 74.9 -69.0 WB0173
20200128 003000 75.2 -69.1 WB0161
20200128 005000 74.9 -69.0 WB0173
20200128 010000 75.2 -69.1 WB0161
20200128 012000 74.9 -69.0 WB0173
20200128 013000 75.2 -69.1 WB0161
20200128 015000 74.9 -69.0 WB0173
20200128 020000 75.2 -69.1 WB0161
20200128 022000 74.9 -69.0 WB0173
20200128 023000 75.2 -69.1 WB0161
20200128 025000 74.9 -69.0 WB0173
20200128 030000 75.2 -69.1 WB0161
20200128 032000 74.9 -69.0 WB0173
20200128 033000 75.2 -69.1 WB0161
20200128 035000 74.8 -69.0 WB0173
20200128 040000 75.2 -69.1 WB0161
20200128 042000 74.8 -69.0 WB0173
20200128 043000 75.2 -69.1 WB0161
20200128 044000 74.8 -69.0 IB1810
20200128 045000 74.8 -69.0 WB0173
20200128 050000 75.2 -69.1 WB0161
20200128 052000 74.8 -69.0 WB0173
20200128 053000 75.2 -69.1 WB0161
20200128 055000 74.8 -69.0 WB0173
20200128 060000 75.2 -69.1 WB0161
20200128 062000 74.8 -69.0 WB0173
20200128 063000 75.2 -69.1 WB0161
20200128 065000 74.8 -69.0 WB0173
20200128 070000 75.2 -69.1 WB0161
20200128 072000 74.8 -69.0 WB0173
20200128 073000 75.2 -69.1 WB0161
20200128 073000 74.8 -69.0 IB1810
20200128 075000 74.8 -69.0 WB0173
20200128 080000 75.2 -69.1 WB0161
20200128 082000 74.8 -69.0 WB0173
20200128 083000 75.2 -69.1 WB0161
20200128 085000 74.8 -69.1 WB0173
20200128 090000 75.2 -69.1 WB0161
20200128 092000 74.8 -69.1 WB0173
20200128 093000 75.2 -69.1 WB0161
20200128 095000 74.8 -69.1 WB0173
20200128 100000 75.2 -69.1 WB0161
20200128 102000 74.8 -69.1 IB1810
20200128 102000 74.8 -69.1 WB0173
20200128 103000 75.2 -69.1 WB0161
20200128 105000 74.8 -69.1 WB0173
20200128 110000 75.2 -69.1 WB0161
20200128 112000 74.8 -69.1 WB0173
20200128 113000 75.2 -69.1 WB0161
20200128 115000 74.8 -69.1 WB0173
20200128 120000 75.2 -69.1 WB0161
20200128 122000 74.8 -69.1 WB0173
20200128 123000 75.2 -69.1 WB0161
20200128 125000 74.8 -69.1 WB0173
20200128 130000 75.2 -69.1 WB0161
20200128 132000 74.8 -69.1 WB0173
20200128 133000 75.2 -69.1 WB0161
20200128 135000 74.8 -69.1 WB0173
20200128 140000 75.2 -69.1 WB0161
20200128 142000 74.8 -69.1 WB0173
20200128 143000 75.2 -69.1 WB0161
20200128 145000 74.8 -69.1 WB0173
20200128 150000 75.2 -69.1 WB0161
20200128 152000 74.7 -69.1 WB0173
20200128 153000 75.2 -69.1 WB0161
20200128 155000 74.7 -69.1 WB0173
20200128 160000 75.2 -69.1 WB0161
20200128 162000 74.7 -69.1 WB0173
20200128 163000 75.2 -69.1 WB0161
20200128 165000 74.7 -69.1 WB0173
20200128 170000 75.2 -69.1 WB0161
20200128 172000 74.7 -69.1 WB0173
20200128 173000 75.2 -69.1 WB0161
20200128 175000 74.7 -69.1 WB0173
20200128 180000 75.2 -69.1 WB0161
20200128 182000 74.7 -69.1 WB0173
20200128 183000 75.2 -69.1 WB0161
20200128 185000 74.7 -69.1 WB0173
20200128 190000 75.2 -69.1 WB0161
20200128 190000 74.7 -69.1 IB1810
20200128 192000 74.7 -69.1 WB0173
20200128 193000 75.2 -69.1 WB0161
20200128 195000 74.7 -69.1 WB0173
20200128 200000 75.2 -69.1 WB0161
20200128 202000 74.7 -69.1 WB0173
20200128 203000 75.2 -69.1 WB0161
20200128 205000 74.7 -69.1 WB0173
20200128 210000 75.2 -69.1 WB0161
20200128 212000 74.7 -69.1 WB0173
20200128 213000 75.2 -69.1 WB0161
20200128 214000 74.6 -69.1 IB1810
20200128 215000 74.7 -69.1 WB0173
20200128 220000 75.2 -69.1 WB0161
20200128 222000 74.7 -69.1 WB0173
20200128 223000 75.2 -69.1 WB0161
20200128 225000 74.6 -69.1 WB0173
20200128 230000 75.2 -69.1 WB0161
20200128 232000 74.6 -69.1 WB0173
20200128 233000 75.2 -69.1 WB0161
20200128 235000 74.6 -69.1 WB0173
20200129 000000 75.2 -69.1 WB0161
20200129 002000 74.6 -69.1 WB0173
20200129 003000 75.2 -69.1 WB0161
20200129 003000 74.5 -69.1 IB1810
20200129 005000 74.6 -69.1 WB0173
20200129 010000 75.2 -69.1 WB0161
20200129 012000 74.6 -69.1 WB0173
20200129 013000 75.2 -69.1 WB0161
20200129 015000 74.6 -69.1 WB0173
20200129 020000 75.2 -69.1 WB0161
20200129 022000 74.5 -69.1 WB0173
20200129 023000 75.1 -69.1 WB0161
20200129 025000 74.5 -69.1 WB0173
20200129 030000 75.1 -69.1 WB0161
20200129 032000 74.5 -69.1 WB0173
20200129 032000 74.5 -69.1 IB1810
20200129 033000 75.1 -69.1 WB0161
20200129 035000 74.5 -69.1 WB0173
20200129 040000 75.1 -69.1 WB0161
20200129 042000 74.5 -69.1 WB0173
20200129 043000 75.1 -69.1 WB0161
20200129 045000 74.5 -69.1 WB0173
20200129 050000 75.1 -69.1 WB0161
20200129 052000 74.5 -69.1 WB0173
20200129 053000 75.1 -69.1 WB0161
20200129 055000 74.5 -69.1 WB0173
20200129 060000 75.1 -69.1 WB0161
20200129 061000 74.5 -69.0 IB1810
20200129 062000 74.5 -69.1 WB0173
20200129 063000 75.1 -69.1 WB0161
20200129 065000 74.5 -69.1 WB0173
20200129 070000 75.1 -69.1 WB0161
20200129 072000 74.5 -69.0 WB0173
20200129 073000 75.1 -69.1 WB0161
20200129 075000 74.5 -69.0 WB0173
20200129 080000 75.1 -69.1 WB0161
20200129 082000 74.5 -69.0 WB0173
20200129 083000 75.1 -69.1 WB0161
20200129 085000 74.5 -69.0 WB0173
20200129 085000 74.5 -69.0 IB1810
20200129 090000 75.1 -69.1 WB0161
20200129 092000 74.5 -69.0 WB0173
20200129 093000 75.1 -69.1 WB0161
20200129 095000 74.5 -69.0 WB0173
20200129 100000 75.1 -69.1 WB0161
20200129 102000 74.5 -69.0 WB0173
20200129 103000 75.1 -69.1 WB0161
20200129 105000 74.5 -69.0 WB0173
20200129 110000 75.2 -69.1 WB0161
20200129 112000 74.5 -69.0 WB0173
20200129 113000 75.2 -69.1 WB0161
20200129 114000 74.5 -69.0 IB1810
20200129 115000 74.5 -69.0 WB0173
20200129 120000 75.2 -69.1 WB0161
20200129 122000 74.5 -69.0 WB0173
20200129 123000 75.2 -69.1 WB0161
20200129 125000 74.5 -69.0 WB0173
20200129 130000 75.2 -69.1 WB0161
20200129 132000 74.5 -69.0 WB0173
20200129 133000 75.2 -69.1 WB0161
20200129 135000 74.5 -69.0 WB0173
20200129 140000 75.2 -69.1 WB0161
20200129 142000 74.5 -69.0 WB0173
20200129 143000 75.2 -69.1 WB0161
20200129 143000 74.5 -69.0 IB1810
20200129 145000 74.5 -69.0 WB0173
20200129 150000 75.2 -69.1 WB0161
20200129 152000 74.5 -69.0 WB0173
20200129 153000 75.2 -69.1 WB0161
20200129 155000 74.5 -69.0 WB0173
20200129 160000 75.2 -69.1 WB0161
20200129 162000 74.5 -69.0 WB0173
20200129 163000 75.2 -69.1 WB0161
20200129 165000 74.5 -69.0 WB0173
20200129 170000 75.2 -69.1 WB0161
20200129 172000 74.5 -69.0 IB1810
20200129 172000 74.5 -69.0 WB0173
20200129 173000 75.2 -69.1 WB0161
20200129 175000 74.5 -69.0 WB0173
20200129 180000 75.2 -69.1 WB0161
20200129 182000 74.5 -69.0 WB0173
20200129 183000 75.2 -69.1 WB0161
20200129 185000 74.5 -69.0 WB0173
20200129 190000 75.2 -69.1 WB0161
20200129 192000 74.5 -69.0 WB0173
20200129 193000 75.2 -69.1 WB0161
20200129 195000 74.5 -69.0 WB0173
20200129 200000 75.2 -69.1 WB0161
20200129 200000 74.5 -69.0 IB1810
20200129 202000 74.5 -69.0 WB0173
20200129 203000 75.2 -69.1 WB0161
20200129 205000 74.5 -69.0 WB0173
20200129 213000 75.2 -69.1 WB0161
20200129 215000 74.5 -69.0 WB0173
20200129 225000 74.5 -69.0 IB1810
20200130 003000 75.2 -69.1 WB0161
20200130 005000 74.4 -69.0 WB0173
20200130 014000 74.4 -69.0 IB1810
20200130 033000 75.2 -69.2 WB0161
20200130 035000 74.4 -69.0 WB0173
20200130 043000 74.4 -69.0 IB1810
20200130 063000 75.2 -69.2 WB0161
20200130 065000 74.4 -69.0 WB0173
20200130 072000 74.4 -69.0 IB1810
20200130 093000 75.1 -69.2 WB0161
20200130 095000 74.3 -69.0 WB0173
20200130 100000 74.3 -69.0 IB1810
20200130 123000 75.1 -69.2 WB0161
20200130 125000 74.3 -69.0 WB0173
20200130 125000 74.3 -69.0 IB1810
20200130 153000 75.1 -69.2 WB0161
20200130 154000 74.3 -69.0 IB1810
20200130 155000 74.2 -69.0 WB0173
20200130 182000 74.3 -68.9 IB1810
20200130 183000 75.1 -69.2 WB0161
20200130 185000 74.2 -69.0 WB0173
20200130 211000 74.3 -68.9 IB1810
20200130 213000 75.1 -69.2 WB0161
20200130 215000 74.2 -68.9 WB0173
20200130 220000 75.1 -69.2 WB0161
20200130 222000 74.2 -68.9 WB0173
20200130 223000 75.1 -69.2 WB0161
20200130 225000 74.2 -68.9 WB0173
20200130 230000 75.1 -69.2 WB0161
20200130 232000 74.2 -68.9 WB0173
20200130 233000 75.1 -69.2 WB0161
20200130 235000 74.2 -68.9 WB0173
20200131 000000 75.1 -69.2 WB0161
20200131 000000 74.3 -68.9 IB1810
20200131 002000 74.2 -68.9 WB0173
20200131 003000 75.1 -69.2 WB0161
20200131 005000 74.2 -68.9 WB0173
20200131 010000 75.0 -69.2 WB0161
20200131 012000 74.2 -68.9 WB0173
20200131 013000 75.0 -69.2 WB0161
20200131 015000 74.2 -68.9 WB0173
20200131 020000 75.0 -69.2 WB0161
20200131 022000 74.2 -68.9 WB0173
20200131 023000 75.0 -69.2 WB0161
20200131 025000 74.2 -68.9 WB0173
20200131 030000 75.0 -69.2 WB0161
20200131 032000 74.2 -68.9 WB0173
20200131 033000 75.0 -69.2 WB0161
20200131 035000 74.2 -68.9 WB0173
20200131 040000 75.0 -69.2 WB0161
20200131 042000 74.2 -68.9 WB0173
20200131 043000 75.0 -69.2 WB0161
20200131 045000 74.1 -68.9 WB0173
20200131 050000 75.0 -69.2 WB0161
20200131 052000 74.1 -68.9 WB0173
20200131 053000 75.0 -69.2 WB0161
20200131 053000 74.2 -68.9 IB1810
20200131 055000 74.1 -68.9 WB0173
20200131 060000 75.0 -69.2 WB0161
20200131 062000 74.1 -68.9 WB0173
20200131 063000 75.0 -69.2 WB0161
20200131 065000 74.1 -68.9 WB0173
20200131 070000 75.0 -69.2 WB0161
20200131 072000 74.1 -68.9 WB0173
20200131 073000 75.0 -69.2 WB0161
20200131 075000 74.1 -68.9 WB0173
20200131 080000 75.0 -69.2 WB0161
20200131 082000 74.2 -68.9 IB1810
20200131 082000 74.1 -68.9 WB0173
20200131 083000 75.0 -69.2 WB0161
20200131 085000 74.1 -68.9 WB0173
20200131 090000 75.0 -69.2 WB0161
20200131 092000 74.1 -68.9 WB0173
20200131 093000 75.0 -69.2 WB0161
20200131 095000 74.1 -68.9 WB0173
20200131 100000 75.0 -69.2 WB0161
20200131 103000 74.9 -69.2 WB0161
20200131 105000 74.1 -68.9 WB0173
20200131 111000 74.2 -68.9 IB1810
20200131 113000 74.9 -69.2 WB0161
20200131 143000 74.8 -69.2 WB0161
20200131 165000 74.1 -68.9 IB1810
20200131 173000 74.8 -69.2 WB0161
20200131 193000 74.1 -68.9 IB1810
20200131 203000 74.8 -69.2 WB0161
20200131 222000 74.1 -68.9 IB1810
20200131 224000 74.1 -68.9 WB0173
20200131 233000 74.8 -69.2 WB0161
20200201 011000 74.1 -68.9 IB1810
20200201 014000 74.1 -68.9 WB0173
20200201 023000 74.7 -69.2 WB0161
20200201 053000 74.7 -69.2 WB0161
20200201 060000 74.1 -68.9 IB1810
20200201 063000 74.7 -69.2 WB0161
20200201 073000 74.7 -69.2 WB0161
20200201 083000 74.7 -69.2 WB0161
20200201 093000 74.7 -69.2 WB0161
20200201 103000 74.7 -69.2 WB0161
20200201 113000 74.7 -69.2 WB0161
20200201 115000 74.1 -68.9 IB1810
20200201 123000 74.7 -69.2 WB0161
20200201 133000 74.7 -69.2 WB0161
20200201 143000 74.7 -69.2 WB0161
20200201 143000 74.1 -68.9 IB1810
20200201 153000 74.7 -69.2 WB0161
20200201 163000 74.7 -69.2 WB0161
20200201 173000 74.7 -69.2 WB0161
20200201 183000 74.7 -69.2 WB0161
20200201 193000 74.7 -69.2 WB0161
20200201 203000 74.7 -69.2 WB0161
20200201 213000 74.7 -69.2 WB0161
20200201 214000 74.1 -68.9 IB1810
20200201 225000 74.7 -69.2 WB0161
20200201 235000 74.7 -69.2 WB0161
20200202 003000 74.1 -68.9 IB1810
20200202 005000 74.7 -69.2 WB0161
20200202 015000 74.7 -69.2 WB0161
20200202 025000 74.7 -69.2 WB0161
20200202 032000 74.1 -68.9 IB1810
20200202 035000 74.7 -69.2 WB0161
20200202 045000 74.7 -69.2 WB0161
20200202 055000 74.7 -69.2 WB0161
20200202 061000 74.1 -68.9 IB1810
20200202 065000 74.7 -69.2 WB0161
20200202 075000 74.7 -69.2 WB0161
20200202 085000 74.7 -69.2 WB0161
20200202 090000 74.1 -68.9 IB1810
20200202 095000 74.7 -69.2 WB0161
20200202 115000 74.1 -68.9 IB1810
20200202 125000 74.7 -69.2 WB0161
20200202 135000 74.7 -69.2 WB0161
20200202 144000 74.1 -68.9 IB1810
20200202 193000 74.7 -69.2 WB0161
20200202 202000 74.1 -68.9 IB1810
20200202 213000 74.7 -69.2 WB0161
20200202 231000 74.1 -68.9 IB1810
20200203 003000 74.7 -69.2 WB0161
20200203 020000 74.1 -68.9 IB1810
20200203 033000 74.7 -69.2 WB0161
20200203 045000 74.1 -68.9 IB1810
20200203 063000 74.7 -69.2 WB0161
20200203 075000 74.1 -68.9 IB1810
20200203 110000 74.0 -68.8 WB0173
20200203 125000 74.1 -68.9 IB1810
20200203 154000 74.1 -68.8 IB1810
20200203 212000 74.1 -68.8 IB1810
20200204 001000 74.1 -68.8 IB1810
20200204 030000 74.1 -68.8 IB1810
20200205 043000 74.0 -68.7 IB1810
20200205 072000 74.0 -68.7 IB1810
20200205 100000 73.9 -68.7 IB1810
20200205 130000 73.9 -68.7 IB1810
20200205 155000 73.9 -68.7 IB1810
20200205 183000 73.9 -68.7 IB1810
20200205 233000 73.8 -68.7 IB1810
20200206 022000 73.8 -68.7 IB1810
20200206 051000 73.7 -68.6 IB1810
20200206 075000 73.6 -68.6 IB1810
20200206 105000 73.5 -68.6 IB1810
20200206 133000 73.4 -68.6 IB1810
20200206 162000 73.3 -68.5 IB1810
20200206 191000 73.1 -68.5 IB1810
20200206 215000 73.0 -68.5 IB1810
20200207 004000 72.8 -68.5 IB1810
20200207 033000 72.7 -68.5 IB1810
20200207 061000 72.7 -68.5 IB1810
20200207 090000 72.6 -68.5 IB1810
20200207 115000 72.5 -68.5 IB1810
20200207 143000 72.5 -68.5 IB1810
20200207 172000 72.4 -68.5 IB1810
20200207 225000 72.3 -68.4 IB1810
20200208 014000 72.3 -68.4 IB1810
20200208 043000 72.2 -68.4 IB1810
20200208 131000 72.1 -68.3 IB1810
20200208 160000 72.1 -68.3 IB1810
20200208 184000 72.1 -68.3 IB1810
20200208 213000 72.0 -68.3 IB1810
20200209 002000 72.0 -68.3 IB1810
20200209 030000 72.0 -68.3 IB1810
20200209 060000 72.0 -68.3 IB1810
20200209 085000 71.9 -68.3 IB1810
20200209 113000 71.9 -68.3 IB1810
20200209 142000 71.9 -68.3 IB1810
20200209 171000 71.8 -68.4 IB1810
20200209 195000 71.8 -68.4 IB1810
20200209 224000 71.8 -68.3 IB1810
20200210 013000 71.7 -68.4 IB1810
20200210 042000 71.7 -68.4 IB1810
20200210 071000 71.7 -68.3 IB1810
20200210 121000 71.6 -68.3 IB1810
20200210 145000 71.6 -68.3 IB1810
20200210 174000 71.7 -68.4 IB1810
20200210 203000 71.7 -68.4 IB1810
20200210 231000 71.6 -68.3 IB1810
20200211 020000 71.6 -68.3 IB1810
20200211 045000 71.6 -68.3 IB1810
20200211 073000 71.6 -68.3 IB1810
20200211 154000 71.6 -68.3 IB1810
20200211 211000 71.6 -68.3 IB1810
20200212 000000 71.6 -68.3 IB1810
20200212 025000 71.6 -68.3 IB1810
20200212 054000 71.6 -68.3 IB1810
20200212 083000 71.6 -68.3 IB1810
20200212 112000 71.6 -68.2 IB1810
20200212 163000 71.5 -68.2 IB1810
20200212 192000 71.5 -68.2 IB1810
20200212 220000 71.5 -68.2 IB1810
20200213 005000 71.4 -68.2 IB1810
20200213 060000 71.4 -68.2 IB1810
20200213 085000 71.3 -68.2 IB1810
20200213 143000 71.2 -68.1 IB1810
20200213 172000 71.1 -68.1 IB1810
20200213 201000 71.1 -68.1 IB1810
20200213 225000 71.0 -68.0 IB1810
20200214 014000 71.0 -68.0 IB1810
20200214 043000 71.0 -68.0 IB1810
20200214 101000 71.0 -68.0 IB1810
20200214 125000 71.0 -68.0 IB1810
20200214 154000 71.0 -68.0 IB1810
20200214 183000 71.0 -68.0 IB1810
20200214 211000 71.0 -68.0 IB1810
20200215 000000 71.0 -68.0 IB1810
20200215 025000 70.9 -68.0 IB1810
20200215 053000 70.9 -68.0 IB1810
20200215 083000 70.9 -68.0 IB1810
20200215 131000 70.9 -68.0 IB1810
20200215 160000 70.9 -67.9 IB1810
20200215 185000 70.9 -67.9 IB1810
20200215 214000 70.9 -67.9 IB1810
20200216 002000 70.9 -67.9 IB1810
20200216 031000 70.9 -67.9 IB1810
20200216 060000 70.9 -67.9 IB1810
20200216 085000 70.9 -67.9 IB1810
20200216 114000 70.9 -67.9 IB1810
20200216 142000 70.9 -67.9 IB1810
20200216 171000 70.9 -67.9 IB1810
20200216 215000 70.9 -67.8 IB1810
20200217 004000 70.8 -67.8 IB1810
20200217 032000 70.8 -67.8 IB1810
20200217 061000 70.8 -67.8 IB1810
20200217 085000 70.8 -67.8 IB1810
20200217 114000 70.8 -67.8 IB1810
20200217 143000 70.8 -67.8 IB1810
20200217 171000 70.8 -67.8 IB1810
