WAVEWATCH III TRACK LOCATIONS DATA 
20200101 002000 76.3 -69.2 WB0173
20200101 005000 76.3 -69.2 WB0173
20200101 012000 76.3 -69.2 WB0173
20200101 015000 76.3 -69.2 WB0173
20200101 022000 76.3 -69.2 WB0173
20200101 025000 76.3 -69.2 WB0173
20200101 032000 76.3 -69.2 WB0173
20200101 035000 76.3 -69.2 WB0173
20200101 042000 76.3 -69.2 WB0173
20200101 045000 76.3 -69.2 WB0173
20200101 052000 76.3 -69.2 WB0173
20200101 055000 76.3 -69.2 WB0173
20200101 062000 76.3 -69.2 WB0173
20200101 065000 76.3 -69.2 WB0173
20200101 072000 76.3 -69.2 WB0173
20200101 075000 76.3 -69.2 WB0173
20200101 082000 76.3 -69.2 WB0173
20200101 085000 76.3 -69.2 WB0173
20200101 092000 76.3 -69.2 WB0173
20200101 095000 76.3 -69.2 WB0173
20200101 102000 76.3 -69.2 WB0173
20200101 105000 76.3 -69.2 WB0173
20200101 112000 76.3 -69.2 WB0173
20200101 115000 76.3 -69.2 WB0173
20200101 122000 76.3 -69.2 WB0173
20200101 125000 76.3 -69.2 WB0173
20200101 132000 76.3 -69.2 WB0173
20200101 135000 76.3 -69.2 WB0173
20200101 142000 76.3 -69.2 WB0173
20200101 145000 76.3 -69.2 WB0173
20200101 152000 76.3 -69.2 WB0173
20200101 155000 76.3 -69.2 WB0173
20200101 162000 76.3 -69.2 WB0173
20200101 165000 76.3 -69.2 WB0173
20200101 172000 76.3 -69.2 WB0173
20200101 175000 76.3 -69.2 WB0173
20200101 182000 76.3 -69.2 WB0173
20200101 185000 76.3 -69.2 WB0173
20200101 192000 76.3 -69.2 WB0173
20200101 195000 76.3 -69.2 WB0173
20200101 202000 76.3 -69.2 WB0173
20200101 205000 76.3 -69.2 WB0173
20200101 212000 76.3 -69.2 WB0173
20200101 215000 76.3 -69.2 WB0173
20200101 222000 76.3 -69.2 WB0173
20200101 225000 76.3 -69.2 WB0173
20200101 232000 76.3 -69.2 WB0173
20200101 235000 76.3 -69.2 WB0173
20200102 002000 76.3 -69.2 WB0173
20200102 005000 76.3 -69.2 WB0173
20200102 012000 76.3 -69.2 WB0173
20200102 015000 76.3 -69.2 WB0173
20200102 022000 76.3 -69.2 WB0173
20200102 025000 76.3 -69.2 WB0173
20200102 032000 76.3 -69.2 WB0173
20200102 035000 76.3 -69.2 WB0173
20200102 042000 76.3 -69.2 WB0173
20200102 045000 76.3 -69.2 WB0173
20200102 052000 76.3 -69.2 WB0173
20200102 055000 76.3 -69.2 WB0173
20200102 062000 76.3 -69.2 WB0173
20200102 065000 76.3 -69.2 WB0173
20200102 072000 76.3 -69.2 WB0173
20200102 075000 76.3 -69.2 WB0173
20200102 082000 76.3 -69.2 WB0173
20200102 085000 76.3 -69.2 WB0173
20200102 092000 76.3 -69.2 WB0173
20200102 095000 76.3 -69.2 WB0173
20200102 102000 76.3 -69.2 WB0173
20200102 105000 76.3 -69.2 WB0173
20200102 112000 76.3 -69.2 WB0173
20200102 115000 76.3 -69.2 WB0173
20200102 122000 76.3 -69.2 WB0173
20200102 125000 76.3 -69.2 WB0173
20200102 132000 76.3 -69.2 WB0173
20200102 135000 76.3 -69.2 WB0173
20200102 142000 76.3 -69.2 WB0173
20200102 145000 76.3 -69.2 WB0173
20200102 152000 76.3 -69.2 WB0173
20200102 155000 76.3 -69.2 WB0173
20200102 162000 76.3 -69.2 WB0173
20200102 165000 76.3 -69.2 WB0173
20200102 172000 76.3 -69.2 WB0173
20200102 175000 76.3 -69.2 WB0173
20200102 182000 76.3 -69.2 WB0173
20200102 185000 76.3 -69.2 WB0173
20200102 192000 76.3 -69.2 WB0173
20200102 195000 76.3 -69.2 WB0173
20200102 202000 76.3 -69.2 WB0173
20200102 205000 76.3 -69.2 WB0173
20200102 212000 76.3 -69.2 WB0173
20200102 215000 76.3 -69.2 WB0173
20200102 222000 76.3 -69.2 WB0173
20200102 225000 76.3 -69.2 WB0173
20200102 232000 76.3 -69.2 WB0173
20200102 235000 76.3 -69.2 WB0173
20200103 002000 76.3 -69.2 WB0173
20200103 005000 76.3 -69.2 WB0173
20200103 012000 76.3 -69.2 WB0173
20200103 015000 76.3 -69.2 WB0173
20200103 022000 76.3 -69.2 WB0173
20200103 025000 76.3 -69.2 WB0173
20200103 032000 76.3 -69.2 WB0173
20200103 035000 76.3 -69.2 WB0173
20200103 042000 76.3 -69.2 WB0173
20200103 045000 76.3 -69.2 WB0173
20200103 052000 76.3 -69.2 WB0173
20200103 055000 76.3 -69.2 WB0173
20200103 062000 76.3 -69.2 WB0173
20200103 065000 76.3 -69.2 WB0173
20200103 072000 76.3 -69.2 WB0173
20200103 075000 76.3 -69.2 WB0173
20200103 082000 76.3 -69.2 WB0173
20200103 085000 76.3 -69.2 WB0173
20200103 092000 76.3 -69.2 WB0173
20200103 095000 76.3 -69.2 WB0173
20200103 102000 76.3 -69.2 WB0173
20200103 105000 76.3 -69.2 WB0173
20200103 112000 76.3 -69.2 WB0173
20200103 115000 76.3 -69.2 WB0173
20200103 122000 76.3 -69.2 WB0173
20200103 125000 76.3 -69.2 WB0173
20200103 132000 76.3 -69.2 WB0173
20200103 135000 76.3 -69.2 WB0173
20200103 142000 76.3 -69.2 WB0173
20200103 145000 76.3 -69.2 WB0173
20200103 152000 76.3 -69.2 WB0173
20200103 155000 76.3 -69.2 WB0173
20200103 162000 76.3 -69.2 WB0173
20200103 165000 76.3 -69.2 WB0173
20200103 172000 76.3 -69.2 WB0173
20200103 175000 76.3 -69.2 WB0173
20200103 182000 76.3 -69.2 WB0173
20200103 185000 76.3 -69.2 WB0173
20200103 192000 76.3 -69.2 WB0173
20200103 195000 76.3 -69.2 WB0173
20200103 202000 76.3 -69.2 WB0173
20200103 205000 76.3 -69.2 WB0173
20200103 212000 76.3 -69.2 WB0173
20200103 215000 76.3 -69.2 WB0173
20200103 222000 76.3 -69.2 WB0173
20200103 225000 76.3 -69.2 WB0173
20200103 232000 76.3 -69.2 WB0173
20200103 235000 76.3 -69.2 WB0173
20200104 002000 76.3 -69.2 WB0173
20200104 005000 76.3 -69.2 WB0173
20200104 012000 76.3 -69.2 WB0173
20200104 015000 76.3 -69.2 WB0173
20200104 022000 76.3 -69.2 WB0173
20200104 025000 76.3 -69.2 WB0173
20200104 032000 76.3 -69.2 WB0173
20200104 035000 76.3 -69.2 WB0173
20200104 042000 76.3 -69.2 WB0173
20200104 045000 76.3 -69.2 WB0173
20200104 052000 76.3 -69.2 WB0173
20200104 055000 76.3 -69.2 WB0173
20200104 062000 76.3 -69.2 WB0173
20200104 065000 76.3 -69.2 WB0173
20200104 072000 76.3 -69.2 WB0173
20200104 075000 76.3 -69.2 WB0173
20200104 082000 76.3 -69.2 WB0173
20200104 085000 76.3 -69.2 WB0173
20200104 092000 76.3 -69.2 WB0173
20200104 095000 76.3 -69.2 WB0173
20200104 102000 76.3 -69.2 WB0173
20200104 105000 76.3 -69.2 WB0173
20200104 112000 76.3 -69.2 WB0173
20200104 115000 76.3 -69.2 WB0173
20200104 122000 76.3 -69.2 WB0173
20200104 125000 76.3 -69.2 WB0173
20200104 132000 76.3 -69.2 WB0173
20200104 135000 76.3 -69.2 WB0173
20200104 142000 76.3 -69.2 WB0173
20200104 145000 76.3 -69.2 WB0173
20200104 152000 76.3 -69.2 WB0173
20200104 155000 76.3 -69.2 WB0173
20200104 162000 76.3 -69.2 WB0173
20200104 165000 76.3 -69.2 WB0173
20200104 172000 76.3 -69.2 WB0173
20200104 175000 76.3 -69.2 WB0173
20200104 182000 76.3 -69.2 WB0173
20200104 185000 76.3 -69.2 WB0173
20200104 192000 76.3 -69.2 WB0173
20200104 195000 76.3 -69.2 WB0173
20200104 202000 76.3 -69.2 WB0173
20200104 205000 76.3 -69.2 WB0173
20200104 212000 76.3 -69.2 WB0173
20200104 215000 76.3 -69.2 WB0173
20200104 222000 76.3 -69.2 WB0173
20200104 225000 76.3 -69.2 WB0173
20200104 232000 76.3 -69.2 WB0173
20200104 235000 76.3 -69.2 WB0173
20200105 002000 76.3 -69.2 WB0173
20200105 005000 76.3 -69.2 WB0173
20200105 012000 76.3 -69.2 WB0173
20200105 015000 76.3 -69.2 WB0173
20200105 022000 76.3 -69.2 WB0173
20200105 025000 76.3 -69.2 WB0173
20200105 032000 76.3 -69.2 WB0173
20200105 035000 76.3 -69.2 WB0173
20200105 042000 76.3 -69.2 WB0173
20200105 045000 76.3 -69.2 WB0173
20200105 052000 76.3 -69.2 WB0173
20200105 055000 76.3 -69.2 WB0173
20200105 062000 76.3 -69.2 WB0173
20200105 065000 76.3 -69.2 WB0173
20200105 072000 76.3 -69.2 WB0173
20200105 075000 76.3 -69.2 WB0173
20200105 082000 76.3 -69.2 WB0173
20200105 085000 76.3 -69.2 WB0173
20200105 092000 76.3 -69.2 WB0173
20200105 095000 76.3 -69.2 WB0173
20200105 102000 76.3 -69.2 WB0173
20200105 105000 76.3 -69.2 WB0173
20200105 112000 76.3 -69.2 WB0173
20200105 115000 76.3 -69.2 WB0173
20200105 122000 76.3 -69.2 WB0173
20200105 125000 76.3 -69.2 WB0173
20200105 132000 76.3 -69.2 WB0173
20200105 135000 76.3 -69.2 WB0173
20200105 142000 76.3 -69.2 WB0173
20200105 145000 76.3 -69.2 WB0173
20200105 152000 76.3 -69.2 WB0173
20200105 155000 76.3 -69.2 WB0173
20200105 162000 76.2 -69.2 WB0173
20200105 165000 76.2 -69.2 WB0173
20200105 172000 76.2 -69.2 WB0173
20200105 175000 76.2 -69.2 WB0173
20200105 182000 76.2 -69.2 WB0173
20200105 185000 76.2 -69.2 WB0173
20200105 192000 76.2 -69.2 WB0173
20200105 195000 76.2 -69.2 WB0173
20200105 202000 76.2 -69.2 WB0173
20200105 205000 76.2 -69.2 WB0173
20200105 212000 76.2 -69.2 WB0173
20200105 215000 76.2 -69.1 WB0173
20200105 222000 76.2 -69.1 WB0173
20200105 225000 76.2 -69.1 WB0173
20200105 232000 76.2 -69.1 WB0173
20200105 235000 76.2 -69.1 WB0173
20200106 002000 76.2 -69.1 WB0173
20200106 005000 76.2 -69.1 WB0173
20200106 012000 76.2 -69.1 WB0173
20200106 015000 76.2 -69.1 WB0173
20200106 022000 76.2 -69.1 WB0173
20200106 025000 76.2 -69.1 WB0173
20200106 032000 76.2 -69.1 WB0173
20200106 035000 76.2 -69.1 WB0173
20200106 042000 76.2 -69.1 WB0173
20200106 045000 76.2 -69.1 WB0173
20200106 052000 76.2 -69.1 WB0173
20200106 055000 76.2 -69.1 WB0173
20200106 062000 76.2 -69.1 WB0173
20200106 065000 76.2 -69.1 WB0173
20200106 072000 76.2 -69.1 WB0173
20200106 075000 76.2 -69.1 WB0173
20200106 082000 76.2 -69.1 WB0173
20200106 085000 76.2 -69.1 WB0173
20200106 092000 76.2 -69.1 WB0173
20200106 095000 76.2 -69.1 WB0173
20200106 102000 76.2 -69.1 WB0173
20200106 105000 76.2 -69.1 WB0173
20200106 112000 76.2 -69.1 WB0173
20200106 115000 76.2 -69.1 WB0173
20200106 122000 76.2 -69.1 WB0173
20200106 125000 76.2 -69.2 WB0173
20200106 132000 76.2 -69.2 WB0173
20200106 135000 76.2 -69.2 WB0173
20200106 142000 76.2 -69.2 WB0173
20200106 145000 76.2 -69.2 WB0173
20200106 152000 76.2 -69.2 WB0173
20200106 155000 76.2 -69.2 WB0173
20200106 162000 76.2 -69.2 WB0173
20200106 165000 76.1 -69.2 WB0173
20200106 172000 76.1 -69.2 WB0173
20200106 175000 76.1 -69.2 WB0173
20200106 182000 76.1 -69.2 WB0173
20200106 185000 76.1 -69.2 WB0173
20200106 192000 76.1 -69.2 WB0173
20200106 195000 76.1 -69.2 WB0173
20200106 202000 76.1 -69.2 WB0173
20200106 205000 76.1 -69.2 WB0173
20200106 212000 76.1 -69.2 WB0173
20200106 215000 76.1 -69.2 WB0173
20200106 222000 76.1 -69.2 WB0173
20200106 225000 76.1 -69.2 WB0173
20200106 232000 76.1 -69.2 WB0173
20200106 235000 76.1 -69.2 WB0173
20200107 002000 76.1 -69.2 WB0173
20200107 005000 76.1 -69.2 WB0173
20200107 012000 76.1 -69.2 WB0173
20200107 015000 76.0 -69.2 WB0173
20200107 022000 76.0 -69.2 WB0173
20200107 025000 76.0 -69.2 WB0173
20200107 032000 76.0 -69.2 WB0173
20200107 035000 76.0 -69.2 WB0173
20200107 042000 76.0 -69.2 WB0173
20200107 045000 76.0 -69.2 WB0173
20200107 052000 76.0 -69.2 WB0173
20200107 055000 76.0 -69.2 WB0173
20200107 062000 76.0 -69.2 WB0173
20200107 065000 76.0 -69.2 WB0173
20200107 072000 76.0 -69.2 WB0173
20200107 075000 76.0 -69.2 WB0173
20200107 082000 76.0 -69.2 WB0173
20200107 085000 75.9 -69.2 WB0173
20200107 092000 75.9 -69.2 WB0173
20200107 095000 75.9 -69.2 WB0173
20200107 102000 75.9 -69.2 WB0173
20200107 105000 75.9 -69.2 WB0173
20200107 115000 75.9 -69.2 WB0173
20200107 145000 75.8 -69.2 WB0173
20200107 175000 75.8 -69.2 WB0173
20200107 205000 75.8 -69.2 WB0173
20200107 235000 75.8 -69.2 WB0173
20200108 025000 75.7 -69.2 WB0173
20200108 055000 75.6 -69.2 WB0173
20200108 085000 75.6 -69.2 WB0173
20200108 115000 75.6 -69.2 WB0173
20200108 145000 75.6 -69.2 WB0173
20200108 175000 75.6 -69.2 WB0173
20200108 205000 75.6 -69.2 WB0173
20200108 235000 75.6 -69.2 WB0173
20200109 025000 75.6 -69.2 WB0173
20200109 055000 75.6 -69.2 WB0173
20200109 085000 75.6 -69.2 WB0173
20200109 115000 75.6 -69.2 WB0173
20200109 145000 75.5 -69.2 WB0173
20200109 175000 75.5 -69.2 WB0173
20200109 205000 75.5 -69.2 WB0173
20200109 235000 75.5 -69.2 WB0173
20200110 025000 75.5 -69.2 WB0173
20200110 055000 75.5 -69.2 WB0173
20200110 085000 75.5 -69.2 WB0173
20200110 115000 75.5 -69.2 WB0173
20200110 145000 75.5 -69.2 WB0173
20200110 175000 75.5 -69.2 WB0173
20200110 205000 75.5 -69.2 WB0173
20200110 235000 75.5 -69.2 WB0173
20200101 003000 76.3 -69.1 WB0161
20200101 010000 76.3 -69.1 WB0161
20200101 013000 76.3 -69.1 WB0161
20200101 020000 76.3 -69.1 WB0161
20200101 023000 76.3 -69.1 WB0161
20200101 030000 76.3 -69.1 WB0161
20200101 033000 76.3 -69.1 WB0161
20200101 040000 76.3 -69.1 WB0161
20200101 043000 76.3 -69.1 WB0161
20200101 050000 76.3 -69.1 WB0161
20200101 053000 76.3 -69.1 WB0161
20200101 060000 76.3 -69.1 WB0161
20200101 063000 76.3 -69.1 WB0161
20200101 070000 76.3 -69.1 WB0161
20200101 073000 76.3 -69.1 WB0161
20200101 080000 76.3 -69.1 WB0161
20200101 083000 76.3 -69.1 WB0161
20200101 090000 76.3 -69.1 WB0161
20200101 093000 76.3 -69.1 WB0161
20200101 100000 76.3 -69.1 WB0161
20200101 103000 76.3 -69.1 WB0161
20200101 110000 76.3 -69.1 WB0161
20200101 113000 76.3 -69.1 WB0161
20200101 120000 76.3 -69.1 WB0161
20200101 123000 76.3 -69.1 WB0161
20200101 130000 76.3 -69.1 WB0161
20200101 133000 76.3 -69.1 WB0161
20200101 140000 76.3 -69.1 WB0161
20200101 143000 76.3 -69.1 WB0161
20200101 150000 76.3 -69.1 WB0161
20200101 153000 76.3 -69.1 WB0161
20200101 160000 76.3 -69.1 WB0161
20200101 163000 76.3 -69.1 WB0161
20200101 170000 76.3 -69.1 WB0161
20200101 173000 76.3 -69.1 WB0161
20200101 180000 76.3 -69.1 WB0161
20200101 183000 76.3 -69.1 WB0161
20200101 190000 76.3 -69.1 WB0161
20200101 193000 76.3 -69.1 WB0161
20200101 200000 76.3 -69.1 WB0161
20200101 203000 76.3 -69.1 WB0161
20200101 210000 76.3 -69.1 WB0161
20200101 213000 76.3 -69.1 WB0161
20200101 220000 76.3 -69.1 WB0161
20200101 223000 76.3 -69.1 WB0161
20200101 230000 76.3 -69.1 WB0161
20200101 233000 76.3 -69.1 WB0161
20200102 000000 76.3 -69.1 WB0161
20200102 003000 76.3 -69.1 WB0161
20200102 010000 76.3 -69.1 WB0161
20200102 013000 76.3 -69.1 WB0161
20200102 020000 76.3 -69.1 WB0161
20200102 023000 76.3 -69.1 WB0161
20200102 030000 76.3 -69.1 WB0161
20200102 033000 76.3 -69.1 WB0161
20200102 040000 76.3 -69.1 WB0161
20200102 043000 76.3 -69.1 WB0161
20200102 050000 76.3 -69.1 WB0161
20200102 053000 76.3 -69.1 WB0161
20200102 060000 76.3 -69.1 WB0161
20200102 063000 76.3 -69.1 WB0161
20200102 070000 76.3 -69.1 WB0161
20200102 073000 76.3 -69.1 WB0161
20200102 080000 76.3 -69.1 WB0161
20200102 083000 76.3 -69.1 WB0161
20200102 090000 76.3 -69.1 WB0161
20200102 093000 76.3 -69.1 WB0161
20200102 100000 76.3 -69.1 WB0161
20200102 103000 76.3 -69.1 WB0161
20200102 110000 76.3 -69.1 WB0161
20200102 113000 76.3 -69.1 WB0161
20200102 120000 76.3 -69.1 WB0161
20200102 123000 76.3 -69.1 WB0161
20200102 130000 76.3 -69.1 WB0161
20200102 133000 76.3 -69.1 WB0161
20200102 140000 76.3 -69.1 WB0161
20200102 143000 76.3 -69.1 WB0161
20200102 150000 76.3 -69.1 WB0161
20200102 153000 76.3 -69.1 WB0161
20200102 160000 76.3 -69.1 WB0161
20200102 163000 76.3 -69.1 WB0161
20200102 170000 76.3 -69.1 WB0161
20200102 173000 76.3 -69.1 WB0161
20200102 180000 76.3 -69.1 WB0161
20200102 183000 76.3 -69.1 WB0161
20200102 190000 76.3 -69.1 WB0161
20200102 193000 76.3 -69.1 WB0161
20200102 200000 76.3 -69.1 WB0161
20200102 203000 76.3 -69.1 WB0161
20200102 210000 76.3 -69.1 WB0161
20200102 213000 76.3 -69.1 WB0161
20200102 220000 76.3 -69.1 WB0161
20200102 223000 76.3 -69.1 WB0161
20200102 230000 76.3 -69.1 WB0161
20200102 233000 76.3 -69.1 WB0161
20200103 000000 76.3 -69.1 WB0161
20200103 003000 76.3 -69.1 WB0161
20200103 010000 76.3 -69.1 WB0161
20200103 013000 76.3 -69.1 WB0161
20200103 020000 76.3 -69.1 WB0161
20200103 023000 76.3 -69.1 WB0161
20200103 030000 76.3 -69.1 WB0161
20200103 033000 76.3 -69.1 WB0161
20200103 040000 76.3 -69.1 WB0161
20200103 043000 76.3 -69.1 WB0161
20200103 050000 76.3 -69.1 WB0161
20200103 053000 76.3 -69.1 WB0161
20200103 060000 76.3 -69.1 WB0161
20200103 063000 76.3 -69.1 WB0161
20200103 070000 76.3 -69.1 WB0161
20200103 073000 76.3 -69.1 WB0161
20200103 080000 76.3 -69.1 WB0161
20200103 083000 76.3 -69.1 WB0161
20200103 090000 76.3 -69.1 WB0161
20200103 093000 76.3 -69.1 WB0161
20200103 100000 76.3 -69.1 WB0161
20200103 103000 76.3 -69.1 WB0161
20200103 110000 76.3 -69.1 WB0161
20200103 113000 76.3 -69.1 WB0161
20200103 120000 76.3 -69.1 WB0161
20200103 123000 76.3 -69.1 WB0161
20200103 130000 76.3 -69.1 WB0161
20200103 133000 76.3 -69.1 WB0161
20200103 140000 76.3 -69.1 WB0161
20200103 143000 76.3 -69.1 WB0161
20200103 150000 76.3 -69.1 WB0161
20200103 153000 76.3 -69.1 WB0161
20200103 160000 76.3 -69.1 WB0161
20200103 163000 76.3 -69.1 WB0161
20200103 170000 76.3 -69.1 WB0161
20200103 173000 76.3 -69.1 WB0161
20200103 180000 76.3 -69.1 WB0161
20200103 183000 76.3 -69.1 WB0161
20200103 190000 76.3 -69.1 WB0161
20200103 193000 76.3 -69.1 WB0161
20200103 200000 76.3 -69.1 WB0161
20200103 203000 76.3 -69.1 WB0161
20200103 210000 76.3 -69.1 WB0161
20200103 213000 76.3 -69.1 WB0161
20200103 220000 76.3 -69.1 WB0161
20200103 223000 76.3 -69.1 WB0161
20200103 230000 76.3 -69.1 WB0161
20200103 233000 76.3 -69.1 WB0161
20200104 000000 76.3 -69.1 WB0161
20200104 003000 76.3 -69.1 WB0161
20200104 010000 76.3 -69.1 WB0161
20200104 013000 76.3 -69.1 WB0161
20200104 020000 76.3 -69.1 WB0161
20200104 023000 76.3 -69.1 WB0161
20200104 030000 76.3 -69.1 WB0161
20200104 033000 76.3 -69.1 WB0161
20200104 040000 76.3 -69.1 WB0161
20200104 043000 76.3 -69.1 WB0161
20200104 050000 76.3 -69.1 WB0161
20200104 053000 76.3 -69.1 WB0161
20200104 060000 76.3 -69.1 WB0161
20200104 063000 76.3 -69.1 WB0161
20200104 070000 76.3 -69.1 WB0161
20200104 073000 76.3 -69.1 WB0161
20200104 080000 76.3 -69.1 WB0161
20200104 083000 76.3 -69.1 WB0161
20200104 090000 76.3 -69.1 WB0161
20200104 093000 76.3 -69.1 WB0161
20200104 100000 76.3 -69.1 WB0161
20200104 103000 76.3 -69.1 WB0161
20200104 110000 76.3 -69.1 WB0161
20200104 113000 76.3 -69.1 WB0161
20200104 120000 76.3 -69.1 WB0161
20200104 123000 76.3 -69.1 WB0161
20200104 130000 76.3 -69.1 WB0161
20200104 133000 76.3 -69.1 WB0161
20200104 140000 76.3 -69.1 WB0161
20200104 143000 76.3 -69.1 WB0161
20200104 150000 76.3 -69.1 WB0161
20200104 153000 76.3 -69.1 WB0161
20200104 160000 76.3 -69.1 WB0161
20200104 163000 76.3 -69.1 WB0161
20200104 170000 76.3 -69.1 WB0161
20200104 173000 76.3 -69.1 WB0161
20200104 180000 76.3 -69.1 WB0161
20200104 183000 76.3 -69.1 WB0161
20200104 190000 76.3 -69.1 WB0161
20200104 193000 76.3 -69.1 WB0161
20200104 200000 76.3 -69.1 WB0161
20200104 203000 76.3 -69.1 WB0161
20200104 210000 76.3 -69.1 WB0161
20200104 213000 76.3 -69.1 WB0161
20200104 220000 76.3 -69.1 WB0161
20200104 223000 76.3 -69.1 WB0161
20200104 230000 76.3 -69.1 WB0161
20200104 233000 76.3 -69.1 WB0161
20200105 000000 76.3 -69.1 WB0161
20200105 003000 76.3 -69.1 WB0161
20200105 010000 76.3 -69.1 WB0161
20200105 013000 76.3 -69.1 WB0161
20200105 020000 76.3 -69.1 WB0161
20200105 023000 76.3 -69.1 WB0161
20200105 030000 76.3 -69.1 WB0161
20200105 033000 76.3 -69.1 WB0161
20200105 040000 76.3 -69.1 WB0161
20200105 043000 76.3 -69.1 WB0161
20200105 050000 76.2 -69.1 WB0161
20200105 053000 76.2 -69.1 WB0161
20200105 060000 76.2 -69.1 WB0161
20200105 063000 76.2 -69.1 WB0161
20200105 070000 76.2 -69.1 WB0161
20200105 073000 76.2 -69.1 WB0161
20200105 080000 76.2 -69.1 WB0161
20200105 083000 76.2 -69.1 WB0161
20200105 090000 76.2 -69.1 WB0161
20200105 093000 76.2 -69.1 WB0161
20200105 100000 76.2 -69.1 WB0161
20200105 103000 76.2 -69.1 WB0161
20200105 110000 76.2 -69.1 WB0161
20200105 113000 76.2 -69.1 WB0161
20200105 120000 76.2 -69.1 WB0161
20200105 123000 76.2 -69.1 WB0161
20200105 130000 76.2 -69.1 WB0161
20200105 133000 76.2 -69.1 WB0161
20200105 140000 76.2 -69.1 WB0161
20200105 143000 76.2 -69.1 WB0161
20200105 150000 76.2 -69.1 WB0161
20200105 153000 76.2 -69.1 WB0161
20200105 160000 76.2 -69.1 WB0161
20200105 163000 76.2 -69.1 WB0161
20200105 170000 76.2 -69.1 WB0161
20200105 173000 76.2 -69.1 WB0161
20200105 180000 76.2 -69.1 WB0161
20200105 183000 76.2 -69.1 WB0161
20200105 190000 76.2 -69.1 WB0161
20200105 193000 76.2 -69.1 WB0161
20200105 200000 76.2 -69.1 WB0161
20200105 203000 76.2 -69.1 WB0161
20200105 210000 76.2 -69.1 WB0161
20200105 213000 76.2 -69.1 WB0161
20200105 220000 76.2 -69.1 WB0161
20200105 223000 76.2 -69.1 WB0161
20200105 230000 76.2 -69.1 WB0161
20200105 233000 76.1 -69.1 WB0161
20200106 000000 76.1 -69.1 WB0161
20200106 003000 76.1 -69.1 WB0161
20200106 010000 76.1 -69.1 WB0161
20200106 013000 76.1 -69.1 WB0161
20200106 020000 76.1 -69.1 WB0161
20200106 023000 76.1 -69.1 WB0161
20200106 030000 76.1 -69.1 WB0161
20200106 033000 76.1 -69.1 WB0161
20200106 040000 76.1 -69.1 WB0161
20200106 043000 76.1 -69.1 WB0161
20200106 050000 76.1 -69.1 WB0161
20200106 053000 76.1 -69.1 WB0161
20200106 060000 76.1 -69.1 WB0161
20200106 063000 76.1 -69.1 WB0161
20200106 070000 76.1 -69.1 WB0161
20200106 073000 76.1 -69.1 WB0161
20200106 080000 76.1 -69.1 WB0161
20200106 083000 76.1 -69.1 WB0161
20200106 090000 76.1 -69.1 WB0161
20200106 093000 76.1 -69.1 WB0161
20200106 100000 76.1 -69.1 WB0161
20200106 103000 76.1 -69.1 WB0161
20200106 110000 76.1 -69.1 WB0161
20200106 113000 76.1 -69.1 WB0161
20200106 120000 76.1 -69.1 WB0161
20200106 123000 76.1 -69.1 WB0161
20200106 130000 76.1 -69.1 WB0161
20200106 133000 76.1 -69.1 WB0161
20200106 140000 76.1 -69.1 WB0161
20200106 143000 76.1 -69.1 WB0161
20200106 150000 76.1 -69.2 WB0161
20200106 153000 76.1 -69.2 WB0161
20200106 160000 76.1 -69.2 WB0161
20200106 163000 76.1 -69.2 WB0161
20200106 170000 76.1 -69.2 WB0161
20200106 173000 76.1 -69.2 WB0161
20200106 180000 76.0 -69.2 WB0161
20200106 183000 76.0 -69.2 WB0161
20200106 190000 76.0 -69.2 WB0161
20200106 193000 76.0 -69.2 WB0161
20200106 200000 76.0 -69.2 WB0161
20200106 203000 76.0 -69.2 WB0161
20200106 210000 76.0 -69.2 WB0161
20200106 213000 76.0 -69.2 WB0161
20200106 220000 76.0 -69.2 WB0161
20200106 223000 76.0 -69.2 WB0161
20200106 230000 75.9 -69.2 WB0161
20200106 233000 75.9 -69.2 WB0161
20200107 000000 75.9 -69.2 WB0161
20200107 003000 75.9 -69.2 WB0161
20200107 010000 75.9 -69.2 WB0161
20200107 013000 75.9 -69.2 WB0161
20200107 020000 75.9 -69.2 WB0161
20200107 023000 75.8 -69.2 WB0161
20200107 033000 75.8 -69.2 WB0161
20200107 053000 75.8 -69.2 WB0161
20200107 073000 75.8 -69.2 WB0161
20200107 093000 75.7 -69.2 WB0161
20200107 113000 75.7 -69.2 WB0161
20200107 123000 75.7 -69.2 WB0161
20200107 153000 75.7 -69.2 WB0161
20200107 183000 75.7 -69.2 WB0161
20200107 213000 75.7 -69.2 WB0161
20200108 003000 75.7 -69.2 WB0161
20200108 033000 75.6 -69.2 WB0161
20200108 063000 75.6 -69.2 WB0161
20200108 093000 75.6 -69.2 WB0161
20200108 123000 75.6 -69.2 WB0161
20200108 153000 75.6 -69.2 WB0161
20200108 183000 75.6 -69.2 WB0161
20200108 213000 75.6 -69.2 WB0161
20200109 003000 75.6 -69.2 WB0161
20200109 033000 75.6 -69.2 WB0161
20200109 063000 75.6 -69.2 WB0161
20200109 093000 75.6 -69.2 WB0161
20200109 123000 75.6 -69.2 WB0161
20200109 153000 75.6 -69.2 WB0161
20200109 183000 75.6 -69.2 WB0161
20200109 213000 75.6 -69.2 WB0161
20200110 003000 75.6 -69.2 WB0161
20200110 033000 75.6 -69.2 WB0161
20200110 063000 75.6 -69.2 WB0161
20200110 093000 75.6 -69.2 WB0161
20200110 123000 75.6 -69.2 WB0161
20200110 153000 75.6 -69.2 WB0161
20200110 183000 75.6 -69.2 WB0161
20200110 213000 75.6 -69.2 WB0161
20200101 020000 76.3 -69.2 IB1810
20200101 045000 76.3 -69.2 IB1810
20200101 073000 76.3 -69.2 IB1810
20200101 102000 76.3 -69.2 IB1810
20200101 131000 76.3 -69.2 IB1810
20200101 160000 76.3 -69.2 IB1810
20200101 185000 76.3 -69.2 IB1810
20200101 214000 76.3 -69.2 IB1810
20200102 002000 76.3 -69.2 IB1810
20200102 031000 76.3 -69.2 IB1810
20200102 060000 76.3 -69.2 IB1810
20200102 085000 76.3 -69.2 IB1810
20200102 113000 76.3 -69.2 IB1810
20200102 142000 76.3 -69.2 IB1810
20200102 171000 76.3 -69.2 IB1810
20200102 195000 76.3 -69.2 IB1810
20200102 224000 76.3 -69.2 IB1810
20200103 013000 76.3 -69.2 IB1810
20200103 042000 76.3 -69.2 IB1810
20200103 071000 76.3 -69.2 IB1810
20200103 095000 76.3 -69.2 IB1810
20200103 124000 76.3 -69.2 IB1810
20200103 172000 76.3 -69.2 IB1810
20200103 222000 76.3 -69.2 IB1810
20200104 010000 76.3 -69.2 IB1810
20200104 035000 76.3 -69.2 IB1810
20200104 085000 76.3 -69.2 IB1810
20200104 114000 76.3 -69.2 IB1810
20200104 142000 76.3 -69.2 IB1810
20200104 171000 76.3 -69.2 IB1810
20200104 200000 76.3 -69.2 IB1810
20200104 225000 76.3 -69.2 IB1810
20200105 014000 76.3 -69.2 IB1810
20200105 042000 76.3 -69.2 IB1810
20200105 071000 76.3 -69.2 IB1810
20200105 100000 76.3 -69.2 IB1810
20200105 124000 76.3 -69.2 IB1810
20200105 153000 76.3 -69.2 IB1810
20200105 182000 76.2 -69.2 IB1810
20200105 211000 76.2 -69.2 IB1810
20200106 000000 76.2 -69.1 IB1810
20200106 045000 76.2 -69.1 IB1810
20200106 095000 76.2 -69.1 IB1810
20200106 123000 76.2 -69.1 IB1810
20200106 152000 76.2 -69.2 IB1810
20200106 181000 76.1 -69.2 IB1810
20200106 210000 76.1 -69.2 IB1810
20200106 235000 76.1 -69.2 IB1810
20200107 023000 76.0 -69.2 IB1810
20200107 052000 76.0 -69.2 IB1810
20200107 081000 76.0 -69.2 IB1810
20200107 110000 75.9 -69.2 IB1810
20200107 135000 75.9 -69.2 IB1810
20200107 164000 75.9 -69.2 IB1810
20200107 193000 75.8 -69.2 IB1810
20200107 222000 75.7 -69.2 IB1810
20200108 011000 75.6 -69.2 IB1810
20200108 040000 75.6 -69.2 IB1810
20200108 065000 75.6 -69.2 IB1810
20200108 094000 75.6 -69.2 IB1810
20200108 123000 75.6 -69.2 IB1810
20200108 151000 75.6 -69.2 IB1810
20200108 202000 75.5 -69.2 IB1810
20200108 231000 75.5 -69.2 IB1810
20200109 020000 75.5 -69.2 IB1810
20200109 045000 75.5 -69.2 IB1810
20200109 073000 75.5 -69.2 IB1810
20200109 102000 75.5 -69.2 IB1810
20200109 131000 75.5 -69.2 IB1810
20200109 160000 75.5 -69.2 IB1810
20200109 184000 75.5 -69.2 IB1810
20200109 213000 75.5 -69.2 IB1810
20200110 002000 75.5 -69.2 IB1810
20200110 031000 75.5 -69.2 IB1810
20200110 055000 75.5 -69.2 IB1810
20200110 084000 75.5 -69.2 IB1810
20200110 113000 75.5 -69.2 IB1810
20200110 142000 75.5 -69.2 IB1810
20200110 193000 75.5 -69.2 IB1810
20200110 221000 75.5 -69.2 IB1810
20200101 003000 76.3 -69.2 IB0820
20200101 032000 76.3 -69.2 IB0820
20200101 061000 76.3 -69.2 IB0820
20200101 090000 76.3 -69.2 IB0820
20200101 115000 76.3 -69.2 IB0820
20200101 144000 76.3 -69.2 IB0820
20200101 172000 76.3 -69.2 IB0820
20200101 201000 76.3 -69.2 IB0820
20200101 230000 76.3 -69.2 IB0820
20200102 015000 76.3 -69.2 IB0820
20200102 044000 76.3 -69.2 IB0820
20200102 073000 76.3 -69.2 IB0820
20200102 102000 76.3 -69.2 IB0820
20200102 160000 76.3 -69.2 IB0820
20200102 184000 76.3 -69.2 IB0820
20200102 214000 76.3 -69.2 IB0820
20200103 002000 76.3 -69.2 IB0820
20200103 054000 76.3 -69.2 IB0820
20200103 083000 76.3 -69.2 IB0820
20200103 112000 76.3 -69.2 IB0820
20200103 141000 76.3 -69.2 IB0820
20200103 170000 76.3 -69.2 IB0820
20200103 194000 76.3 -69.2 IB0820
20200103 223000 76.3 -69.2 IB0820
20200104 012000 76.3 -69.2 IB0820
20200104 041000 76.3 -69.2 IB0820
20200104 070000 76.3 -69.2 IB0820
20200104 095000 76.3 -69.2 IB0820
20200104 153000 76.3 -69.2 IB0820
20200104 182000 76.3 -69.2 IB0820
20200104 211000 76.3 -69.2 IB0820
20200104 235000 76.3 -69.2 IB0820
20200105 024000 76.3 -69.2 IB0820
20200105 053000 76.3 -69.2 IB0820
20200105 082000 76.3 -69.2 IB0820
20200105 111000 76.3 -69.2 IB0820
20200105 135000 76.3 -69.2 IB0820
20200105 164000 76.3 -69.2 IB0820
20200105 193000 76.3 -69.2 IB0820
20200105 222000 76.3 -69.2 IB0820
20200106 011000 76.3 -69.2 IB0820
20200106 040000 76.3 -69.2 IB0820
20200106 064000 76.3 -69.2 IB0820
20200106 093000 76.3 -69.2 IB0820
20200106 122000 76.3 -69.2 IB0820
20200106 151000 76.3 -69.2 IB0820
20200106 180000 76.3 -69.2 IB0820
20200106 205000 76.3 -69.2 IB0820
20200106 234000 76.3 -69.2 IB0820
20200107 022000 76.3 -69.2 IB0820
20200107 051000 76.3 -69.2 IB0820
20200107 081000 76.3 -69.2 IB0820
20200107 135000 76.3 -69.2 IB0820
20200107 163000 76.3 -69.2 IB0820
20200107 193000 76.3 -69.2 IB0820
20200107 222000 76.3 -69.2 IB0820
20200108 011000 76.3 -69.2 IB0820
20200108 062000 76.3 -69.2 IB0820
20200108 090000 76.3 -69.2 IB0820
20200108 115000 76.3 -69.2 IB0820
20200108 144000 76.3 -69.2 IB0820
20200108 173000 76.3 -69.2 IB0820
20200108 202000 76.3 -69.2 IB0820
20200108 231000 76.3 -69.2 IB0820
20200109 020000 76.3 -69.2 IB0820
20200109 045000 76.3 -69.2 IB0820
20200109 074000 76.3 -69.2 IB0820
20200109 103000 76.3 -69.2 IB0820
20200109 132000 76.3 -69.2 IB0820
20200109 161000 76.3 -69.2 IB0820
20200109 190000 76.3 -69.2 IB0820
20200109 215000 76.3 -69.2 IB0820
20200110 003000 76.3 -69.2 IB0820
20200110 032000 76.3 -69.2 IB0820
20200110 061000 76.3 -69.2 IB0820
20200110 090000 76.3 -69.2 IB0820
20200110 141000 76.3 -69.2 IB0820
20200110 170000 76.3 -69.2 IB0820
20200110 194000 76.3 -69.2 IB0820
20200110 223000 76.3 -69.2 IB0820
