WAVEWATCH III TRACK LOCATIONS DATA 
20191122 000000   70 -62  POS1.1
20191122 060000   70 -62  POS1.2
20191122 120000   70 -62  POS1.3
20191122 180000   70 -62  POS1.4
20191123 000000   70 -62  POS1.5

