WAVEWATCH III TRACK LOCATIONS DATA 
20191201 000000   313.5 -43  POS1.1
20191201 040000   313.5 -43  POS1.2
20191201 080000   313.5 -43  POS1.3
20191201 120000   313.5 -43  POS1.4
20191201 160000   313.5 -43  POS1.5
20191201 200000   313.5 -43  POS1.6
20191202 000000   313.5 -43  POS1.7
