WAVEWATCH III TRACK LOCATIONS DATA 
20191101 000000   313.5 -43  POS1.1
20191101 060000   313.5 -43  POS1.2
20191101 120000   313.5 -43  POS1.3
20191101 180000   313.5 -43  POS1.4
20191102 000000   313.5 -43  POS1.5
